         MACRO                                                            036470
&NAME    BTYPE &PREFIX=,&DCHAR=,&DNUM=,&REG=R1,&UNUSED=,               *  036480
               &CHAR=,&NUM=,&PD=,&HEX=,&BIT=,&MASK=,&BIN=,&FLOAT=,     *  036490
               &STR=,&IND=,&FREE=                                         036500
.*                                                                        036510
.*       GENERATE THE CODE TO PERFROM AN INDEXED BRANCH TO THE            036520
.*        APPROPRIATE PROCESSING ROUTINE, BASED UPON THE INTERNAL         036530
.*        REPRESENTATION OF THE FIELD TYPE ( WHICH IS IN &REG ).          036540
.*                                                                        036550
.*       DEFAULTS MAY BE SPECIFIED FOR THE TWO LOGICAL GROUPS OF          036560
.*        FIELD TYPES ( NUMERIC - DNUM= - AND NON-NUMERIC - DCHAR= ).     036570
.*                                                                        036580
         LCLC  &B1,&B2,&B3,&B4,&B5,&B6,&B7,&B8,&B9,&B10,&B11,&B12         036590
&B1      SETC  '&PREFIX&DCHAR'                                            036600
         AIF   ('&CHAR' EQ '').B2                                         036610
&B1      SETC  '&PREFIX&CHAR'                                             036620
.B2      ANOP                                                             036630
&B2      SETC  '&PREFIX&DNUM'                                             036640
         AIF   ('&NUM' EQ '').B3                                          036650
&B2      SETC  '&PREFIX&NUM'                                              036660
.B3      ANOP                                                             036670
&B3      SETC  '&PREFIX&DNUM'                                             036680
         AIF   ('&PD' EQ '').B4                                           036690
&B3      SETC  '&PREFIX&PD'                                               036700
.B4      ANOP                                                             036710
&B4      SETC  '&PREFIX&DCHAR'                                            036720
         AIF   ('&HEX' EQ '').B5                                          036730
&B4      SETC  '&PREFIX&HEX'                                              036740
.B5 ANOP                                                                  036750
&B5      SETC  '&PREFIX&DCHAR'                                            036760
         AIF   ('&BIT' EQ '').B6                                          036770
&B5      SETC  '&PREFIX&BIT'                                              036780
.B6      ANOP                                                             036790
&B6      SETC  '&PREFIX&DCHAR'                                            036800
         AIF   ('&MASK' EQ '').B7                                         036810
&B6      SETC  '&PREFIX&MASK'                                             036820
.B7      ANOP                                                             036830
&B7      SETC  '&PREFIX&DNUM'                                             036840
         AIF   ('&BIN' EQ '').B8                                          036850
&B7      SETC  '&PREFIX&BIN'                                              036860
.B8      ANOP                                                             036870
&B8      SETC  '&PREFIX&DNUM'                                             036880
         AIF   ('&FLOAT' EQ '').B9                                        036890
&B8      SETC  '&PREFIX&FLOAT'                                            036900
.B9      ANOP                                                             036910
&B9      SETC  '&PREFIX&DCHAR'                                            036920
         AIF   ('&STR' EQ '').B10                                         036930
&B9      SETC  '&PREFIX&STR'                                              036940
.B10     ANOP                                                             036950
&B10     SETC  '&PREFIX&DCHAR'                                            036960
         AIF   ('&IND' EQ '').B11                                         036970
&B10     SETC  '&PREFIX&IND'                                              036980
.B11     ANOP                                                             036990
&B11     SETC  '&PREFIX&DNUM'                                             037000
         AIF   ('&FREE' EQ '').B12                                        037010
&B11     SETC  '&PREFIX&FREE'                                             037020
.B12     ANOP                                                             037030
&B12     SETC  '&PREFIX&DCHAR'                                            037040
         AIF   ('&UNUSED' EQ '').B13                                      037050
&B12     SETC  '&PREFIX&UNUSED'                                           037060
.B13     ANOP                                                             037070
&NAME    SLL   &REG,2              CONVERT TYPE CODE INTO AN INDEX        037080
         B     *(&REG)             GO TO APPROPRIATE BRANCH INSTRUCTION   037090
         B     &B1                 CHARACTER                              037100
         B     &B2                 DISPLAY NUMERIC                        037110
         B     &B3                 PACKED DECIMAL                         037120
         B     &B4                 HEXADECIMAL                            037130
         B     &B5                 BIT STRING                             037140
         B     &B6                 PARTIAL KEY MASK                       037150
         B     &B7                 BINARY                                 037160
         B     &B8                 FLOATING POINT                         037170
         B     &B9                 CHARACTER STRING                       037180
         B     &B10                INDICATOR                              037190
         B     &B11                FREE FORMAT DISPLAY NUMERIC            037200
         B     &B12                UNASSIGNED                             037210
         MEND                                                             037220
