         MACRO                                                            032760
&NAME    COUNT &DCBSW,&NO                                                 032770
.*                                                                        032780
.*       INCREMENT RECORD COUNTER IN DCBSW                                032790
.*                                                                        032800
         AIF   ('&NO' NE '0').A03                                         032810
&NAME    ZAP   &DCBSW.+IOPSRCNT(4),=P'0' ZEROISE LINE COUNT               032820
         MEXIT                                                            032830
.A03     ANOP                                                             032840
&NAME    AP    &DCBSW.+IOPSRCNT(4),=P'&NO' INCREMENT LINE COUNT           032850
         MEND                                                             032860
