         MACRO                                                            019370
&NAME    GR01  &DUMMY                                                     019380
***********************************************************************   019390
*        FORMAT OF GR01 CONTROL CARD                                  *   019400
***********************************************************************   019410
         SPACE 1                                                          019420
*        SPECIFIES THE REPORT HEADINGS -                                  019430
*         1ST LINE : CARD 1                                               019440
*         2ND LINE : CARDS 2 & 3                                          019450
*         3RD LINE : CARDS 4 & 5                                          019460
GR01CARD DSECT                                                            019470
GR01ID   DS    CL4                 CARD ID ('GR01')                       019480
GR01CC   DS    CL1                 'BEFORE PRINT' CARRIAGE CONTROL CHAR   019490
*                                   '0' - NO SPACE                        019500
*                                   '1' - SPACE 1 LINE ( DEFAULT )        019510
*                                   '2' - SPACE 2 LINES                   019520
*                                   '3' - SPACE 3 LINES                   019530
GR01LNE1 DS    CL75                1ST PART OF LINE                       019540
GR01LGTH EQU   *-GR01CARD          LENGTH OF DSECT                        019550
         MEND                                                             019560
