         MACRO                                                            020940
&NAME    GR05  &DUMMY                                                     020950
***********************************************************************   020960
*        FPRMAT OF GR05 CONTROL CARDS                                 *   020970
***********************************************************************   020980
         SPACE 1                                                          020990
*        SPECIFY DETAIL LEVEL REPORT ( BY MERE PRESENCE )                 021000
*        IDENTIFY DETAIL LEVEL NAME FIELD ( IF ANY )                      021010
         SPACE 1                                                          021020
GR05CARD DSECT                                                            021030
GR05ID   DS    CL4                 CARD ID ('GR05')                       021040
GR05POS  DS    CL3                 POSN OF DETAIL LEVEL NAME FIELD        021050
GR05LEN  DS    CL2                 LGTH OF DETAIL LEVEL NAME FIELD        021060
         DS    CL71                UNUSED                                 021070
GR05LGTH EQU   *-GR05CARD          LENGTH OF DSECT                        021080
         MEND                                                             021090
