         MACRO                                                            021670
&NAME    GR08 &DUMMY                                                      021680
***********************************************************************   021690
*        FORMAT OF GR08 CONTROL CARD                                  *   021700
***********************************************************************   021710
         SPACE 1                                                          021720
*        DEFINE PRINT LAYOUT IN BASIC BUDGIE                              021730
*        DEFINE FIELD TO BE TWENTY80 ANALYSED ( IF ANY )                  021740
         SPACE 1                                                          021750
GR08CARD DSECT                                                            021760
GR08ID   DS    CL4                 ('GR08')                               021770
GR08BSIC DS    0CL15               FLD DEF'NS FOR BASIC REPORT FORMAT     021780
GR08PRT1 DS    0CL3                DEFINITION OF 1ST PRINT FIELD          021790
GR08FID  DS    CL2                 FIELD IDENTIFIER                       021800
GR08NDEC DS    CL1                 NUMBER OF DECIMALS TO BE PRINTED       021810
GR08PRT2 DS    CL3                 AS GR08FID - GR08NDEC                  021820
GR08PRT3 DS    CL3                 AS GR08FID - GR08NDEC                  021830
GR08PRT4 DS    CL3                 AS GR08FID - GR08NDEC                  021840
GR08PRT5 DS    CL3                 AS GR08FID - GR08NDEC                  021850
GR08TW80 DS    CL2                 ID OF FIELD TO BE TWENTY80'ED          021860
GR08DESC DS    CL30                HEADING FOR TWENTY80 ANALYSIS          021870
GR08UNUS DS    CL24                UNUSED                                 021880
GR08XTRA DS    0CL5                EXTRA FIELDS, ONLY IF PARM=GR08XTRA    021890
GR08NOLO DS    CL1                 PRINT LOWER BOUND INDICATOR (Y/N/ )    021900
GR08RID  DS    CL2                 ID OF ASSOCIATED 'GR00' CARD           021910
GR08ACUM DS    CL2                 LABEL OF FIELD TO ACCUMULATE           021920
GR08LGTH EQU   *-GR08CARD          LRNGTH OF DSECT                        021930
         MEND                                                             021940
