         MACRO                                                            008290
&NAME    ISD  &DUMMY                                                      008300
***********************************************************************   008310
*        ISD - IS DATA FIELD DEFINITION                               *   008320
***********************************************************************   008330
         SPACE 1                                                          008340
*        DESCRIBE SINGLE FIELF TO BE RETRIEVED FROM ISAM RECORD           008350
         SPACE 1                                                          008360
ISDNTRY  DSECT                     DEFINE DATA TO BE EXTRACTED            008370
ISDID    DS    0CL1                CONTROL BLOCK IDENTIFIER               008380
ISDISD   DS    F                   ADDRESS OF NEXT ISD                    008390
ISDSPOS  DS    H                   POSN OF FIELD IN IS RECORD             008400
ISDSLEN  DS    CL1                 LGTH OF FIELD IN IS RECORD             008410
ISDSW    DS    CL1                 SWITCH BYTE                            008420
ISDDPOS  DS    H                   POSN OF FIELD IN DESTINATION           008430
ISDDLEN  DS    CL1                 LGTH OF FIELD IN DESTINATION           008440
ISDLGTH  EQU   *-ISDNTRY           LENGTH OF BASIC DSECT                  008450
ISDPADC  DS    0CL1                PAD CHARACTER IF RELEVANT              008460
ISDLIT   DS    CL20                DEFAULT LITERAL IF RELEVANT            008470
         SPACE 5                                                          008480
MISDPACK EQU   1                   PACK SOURCE BEFORE MOVE                008490
MISDUNP  EQU   2                   UNPACK SOURCE BEFORE MOVE              008500
MISDLIT  EQU   4                   USE DEFUALT LITERAL IF NO MATCH        008510
MISDPAD  EQU   8                   PAD DERIVED FIELD IF NO MATCH          008520
         MEND                                                             008530
