         MACRO                                                            017470
&NAME    MONITREC &DUMMY                                                  017480
***********************************************************************   017490
*        FORMAT OF MONITOR DATA SET RECORDS                           *   017500
***********************************************************************   017510
         SPACE 1                                                          017520
MONITREC DSECT                                                            017530
MONRADDR DS    CL6                 HEXPANDED ADDR OF NEXT INSTRUCTION     017540
*                                   IF OUTSIDE OF PARROT CODE, OR         017550
*                                   HEXPANDED DISPLACEMENT WITHIN CSECT   017560
MONRLOCN DS    CL2                 LOCATION INDICATOR:                    017570
*                                   X'0000' - BELOW START OF PARROT       017580
*                                   X'FFFF' - ABOVE END OF PARROT         017590
*                                   C'XX'   - PARROT CSECT SUFFIX         017600
MONRINS  DS    CL12                HEXPANDED INSTRUCTION IMAGE            017610
MONRHADR DS    CL4                 ADDR OF NEXT INSTRUCTION ( IN HEX )    017620
MONRLGTH EQU   *-MONITREC          LENGTH OF DSECT                        017630
         MEND                                                             017640
