         MACRO                                                            037680
&NAME    NULCB &CB,&LABEL                                                 037690
.*                                                                        037700
.*       TEST IF THE CURRENT CONTROL BLOCK HAS BEEN NULLIFIED, AND        037710
.*        GO TO THE SPECIFIED LABEL IF SO.                                037720
.*                                                                        037730
&NAME    CLI   &CB.ID,NULLCB       TEST IF CONTROL BLOCK IS NULLIFIED     037740
         BE    &LABEL              BR IF YES TO BYPASS PROCESSING         037750
         MEND                                                             037760
