         MACRO                                                            034190
&NAME  NUMERIC &FLD,&LEN,&SIGNED                                          034200
.*                                                                        034210
.*       GENERATE LINKAGE TO VALIDATE NUMERIC FIELD                       034220
.*                                                                        034230
         LCLA  &LL                                                        034240
         LCLC  &R,&L,&NAME1                                               034250
&NAME1   SETC  '&NAME'                                                    034260
         AIF   ('&FLD'(1,1) NE '(').C1                                    034270
&R       SETC  '&FLD(1)'                                                  034280
         AIF   ('&R' EQ 'R14').C2                                         034290
&NAME1   LA    R14,0(,&R)          POINT AT R14 AT FIELD                  034300
&NAME1   SETC  ' '                                                        034310
         AGO   .C2                                                        034320
.C1      ANOP                                                             034330
&NAME1   LA    R14,&FLD            POINT R14 AT FIELD                     034340
&NAME1   SETC  ' '                                                        034350
.C2      AIF   ('&LEN' EQ '').C3                                          034360
&LL      SETA  &LEN                                                       034370
&LL      SETA  &LL-1                                                      034380
&NAME1   LA    R15,&LL             SET EXECUTABLE LENGTH IN R15           034390
&NAME1   SETC  ' '                                                        034400
         AGO   .C4                                                        034410
.C3      ANOP                                                             034420
&LL      SETA  L'&FLD                                                     034430
&LL      SETA  &LL-1                                                      034440
&NAME1   LA    R15,&LL             SET EXECUTABLE LENGTH IN R15           034450
&NAME1   SETC  ' '                                                        034460
.C4      AIF   ('&SIGNED' NE 'PACKED').C5                                 034470
         CBAL  R4,NUMRICP          VALIDAT PACKED DECIMAL FIELD           034480
         MEXIT                                                            034490
.C5      AIF   ('&SIGNED' NE 'SIGNED').C6                                 034500
         CBAL  R4,NUMRICS          VALIDATE SIGNED/UNSIGNED EBCDIC        034510
         MEXIT                                                            034520
.C6      CBAL  R4,NUMERIC          VALIDATE UNSIGNED EBCDIC               034530
         MEND                                                             034540
