         MACRO                                                            036140
&NAME    PPPLL &SOURCE,&DEST                                              036150
.*                                                                        036160
.*       GENERATE LINKAGE TO PPPLL CONVERSION ROUTINE                     036170
.*                                                                        036180
&NAME    LA    R2,&SOURCE          POINT R2 AT SOURCE EBCDIC PPPLL        036190
         LA    R3,&DEST            POINT R3 AT DESTINATION BINARY PPL     036200
         CBAL  R4,PPPLL            PERFORM CONVERSION ROUTINE             036210
         MEND                                                             036220
