         MACRO                                                            011120
&NAME    PTE   &DUMMY                                                     011130
***********************************************************************   011140
*        PTE - PROCESSING TEST ELEMENT                                *   011150
***********************************************************************   011160
         SPACE 1                                                          011170
*        DEFINE A GR/M 'TEST'                                             011180
         SPACE 1                                                          011190
PTENTRY  DSECT                                                            011200
PTEID    DS    0CL1                CONTROL BLOCK IDENTIFIER               011210
PTEPCB   DS    F                   ADDRESS OF PCB TO WHICH TO PASS CONT   011220
*                                   IF THIS TEST IS SATISFIED             011230
PTELIBT  DS    F                   ADDRESS OF LIB OF FIELD BEING TESTED   011240
PTELIBC  DS    F                   ADDRESS OF LIB OF COMPARAND            011250
PTE$LACE DS    F                   ADDRESS OF ACE CONTAINING $L VALUE     011260
PTECCNO  DS    CL2                 CONTROL CARD SEQ NO                    011270
PTELABLT DS    CL2                 LABEL OF FIELD BEONG TSTED             011280
PTELABLC DS    CL2                 LABEL OF COMAPRAND                     011290
PTELABLD DS    CL2                 LABEL OF GR07 TO WHICH TO BRANCH       011300
PTECTYPE DS    CL1                 INTERNAL REPRESENTATION OF TEST TYP    011310
PTESW    DS    CL1                 SWITCH BYTE                            011320
PTELGTH  EQU   *-PTENTRY           LENGTH OF DSECT                        011330
         SPACE 5                                                          011340
MPTE$1   EQU   1                   PERFORM FUNCTION '$1' IF TEST GOOD     011350
MPTE$2   EQU   2                   PERFORM FUNCTION '$2' IF TEST GOOD     011360
MPTE$K1  EQU   4                   FIELD 1 ( TEST FLD ) SPECIFIES $K      011370
MPTE$K2  EQU   8                   FIELD 2 ( COMPARAND ) SPECIFIES $K     011380
MPTE$L1  EQU   16                  FIELD 1 SECIFIES '$L' LITERAL          011390
MPTE$L2  EQU   32                  FIELD 2 SECIFIES '$L' LITERAL          011400
         MEND                                                             011410
