         MACRO                                                            033350
&NAME    SPDGEN                    &NUMB,&LAST                            033360
.*                                                                        033370
.*       GENERATE STORAGE POOL DEFINITION BLOCK                           033380
.*                                                                        033390
.*      SPDGEN NNN                 SPD FER NNN BYTES TO BE GETMAINED      033400
.*      SPDGEN CSECT               SPD FOR CSECT NAMED PARROT&NUMB        033410
.*      SPDGEN      ,LAST          SET CHAIN FIELD TO ZEROES              033420
.*      SPDGEN    ,FLDNAME         SET TO CHAIN TO FLDNAME                033430
.*                                                                        033440
         LCLC  &CADR,&FLAG,&CSECT,&SIZE                                   033450
&CADR    SETC  '*+SPDLGTH'                                                033460
&FLAG    SETC  '0'                                                        033470
&SIZE    SETC  '0'                                                        033480
         AIF   (T'&NUMB EQ 'C').A02                                       033490
         AIF   (T'&NUMB EQ 'Z').A01                                       033500
         MNOTE 16,&NUMB IS INVALID'                                       033510
         MEXIT                                                            033520
.A01     ANOP                                                             033530
&FLAG    SETC  'MSPDGETM'                                                 033540
.A02     AIF   ('&LAST' EQ '').A03                                        033550
&CADR    SETC  '0'                                                        033560
         AIF   ('&LAST' EQ '       AST').A03                              033570
&CADR    SETC  '&LAST'                                                    033580
.A03     AIF   (T'&NUMB EQ 'C').A04                                       033590
&SIZE    SETC  '&NUMB'                                                    033600
&CSECT   SETC  '0'                                                        033610
         AGO   .A05                                                       033620
.A04     ANOP                                                             033630
&CSECT   SETC  'PARROT&NUMB'                                              033640
&SIZE    SETC  'LGTH&NUMB.-PARROT&NUMB'                                   033650
.A05     ANOP                                                             033660
&NAME    DC    AL1(&FLAG),AL3(&CADR)SWITCH BYTE AND CHAIN ADDRESS         033670
         DC    A(&CSECT)           ADDRESS OF STORAGE POOL                033680
         DC    A(&SIZE)            SIZE OF STORAGE POOL                   033690
         DC    A(0),A(0)           WORK FILE CAPACITY AND POINTER         033700
         MEND                                                             033710
