         MACRO                                                            017660
&NAME    TRD   &DUMMY                                                     017670
***********************************************************************   017680
*        TRD - TWENTY80 REPORT DEFINITION                             *   017690
***********************************************************************   017700
         SPACE 1                                                          017710
TRDNTRY  DSECT                                                            017720
TRDID    DS    0CL1                CONTROL BLOCK IDENTIFIER               017730
TRDTRD   DS    F                   ADDRESS OF NEXT TRD                    017740
TRDRAE   DS    F                   ADDRESS OF 1ST ASSOCIATED RAE          017750
TRDLIB   DS    F                   ADDRESS OF LIB OF FIELD TO STUDY       017760
TRDLIBA  DS    F                   ADDRESS OF LIB OF FIELD TO ACCUMULAT   017770
TRDOCB   DS    F                   ADDRESS OF ASSOCIATED OCB              017780
TRDPOSN  DS    F                   ADDRESS OF NEXT OUTPUT FIELD           017790
TRDTVAL  DS    CL8                 CUMULATIVE FILE TOTAL OF VALUES        017800
TRDKVAL  DS    CL8                 CUMULATIVE TOTAL FOR MAJOR KEY         017810
TRDCVAL  DS    CL8                 ACCUMULATOR FOR RAE PROCESSING         017820
TRDLBND  DS    CL8                 LOWER BOUND OF CURRENT RAE             017830
TRDCNO   DS    PL4                 ACCUMULATOR FOR RAE PROCESSING         017840
TRDTNO   DS    PL4                 NO OF ENTRIES ON FILE                  017850
TRDKNO   DS    PL4                 NO OF ENTRIES WITHIN MAJOR KEY         017860
TRDLAB   DS    CL2                 LABEL OF FIELD TO STUDY                017870
TRDLABA  DS    CL2                 LABEL OF FIELD TO ACCUMULATE           017880
TRDRID   DS    CL2                 LABEL OF ASSOCIATED OCB                017890
TRDDESC  DS    CL30                DESCRIPTION OF VARIABLE                017900
TRDSW    DS    CL1                 SWITCH BYTE                            017910
TRDLGTH  EQU   *-TRDNTRY           LENGTH OF DSECT                        017920
         SPACE 5                                                          017930
MTRDNOLO EQU   1                   DO NOT INCLUDE LOWER BOUND IN LINE     017940
         MEND                                                             017950
