         MACRO -- $MODINIT -- CALL MODIFICATION INITIALISATION          MACT0130
&NAME   $MODINIT &PROGRAM=JES2B001,&DOC=NO                              MACT0140
         AIF   ('&DOC' NE 'YES').NODOC                                  MACT0150
         SPACE 1                                                        MACT0160
*        THE CORRECT FORM IS :-                                         MACT0170
*NAME $MODINIT PROGRAM=<ROUTINE>   SPECIFIES NAME OF PROGRAM TO BE      MACT0180
*                                  USED TO INITIALISE OPTIONAL JES2     MACT0190
*                                  INITIALISATION OPTIONS.              MACT0200
*                                  THE DEFAULT IS JES2B001,THE PRIMARY  MACT0210
*                                  MONSANTO MODIFICATION SELECTION      MACT0220
*                                  AND LOADING PROGRAM.                 MACT0230
*                                                                       MACT0240
*              <DOC=NO | YES>      PRODUCE DOCUMENTATION ( DEFAULT NO ) MACT0250
*                                                                       MACT0260
         SPACE 1                                                        MACT0270
*                                                                       MACT0280
*        THE PURPOSE OF THIS MACRO IS TO EFFECT ENTRY TO A              MACT0290
*        MODIFICATION PROGRAM UNDER THE CONTROL OF THE JES2             MACT0300
*        TCB/RB CHAIN.THIS COURSE IS PREFERRED TO A STRAIGHT            MACT0310
*        'LINK' SVC6 BECAUSE THE MODIFCATION PROGRAM MAY WISH           MACT0320
*        TO USE OR ALTER THE JES2 ESTAE EXIT: - IN THE                  MACT0330
*        CASE OF JES2B001 THE MONSANTO ESTAE ROUTINE JES2B005           MACT0340
*        IS SPECIFICALLY INVOKED.                                       MACT0350
*                                                                       MACT0360
*        A SEARCH FOR THE REQUIRED PROGRAM IS MADE WITH A 'BLDL'        MACT0370
*        BEFORE LOADING TO PREVENT AN ABEND IN PROGRAM FETCH,           MACT0380
*        AND THE PROGRAM IS DELETED FROM STORAGE AFTER PROCESSING       MACT0390
*        FOR REASONS OF AESTHETICS,SECURITY AND STORAGE CONSERVATION.   MACT0400
*                                                                       MACT0410
         SPACE 1                                                        MACT0420
.NODOC   ANOP                                                           MACT0430
&NAME    DS    0H                  DYNAMICALLY CALL PROGRAM             MACT0440
         BLDL  0,MODP&SYSNDX       LOCATE MODULE IN STEPLIB             MACT0450
         LTR   R15,R15             TEST RETURN CODE                     MACT0460
         BNZ   MODI&SYSNDX         ERROR,GO WARN OPERATOR               MACT0470
         LOAD  DE=MODN&SYSNDX      NO ERROR,FETCH MODULE INTO STORE     MACT0480
         LTR   R15,R15             TEST RETURN CODE                     MACT0490
         BNZ   MODI&SYSNDX         ERROR,GO WARN OPERATOR               MACT0500
         LR    R15,R0              GET ENTRY POINT ADDRESS              MACT0510
         BALR  R14,R15             GO ENTER PROGRAM                     MACT0520
         DELETE DE=MODN&SYSNDX     ON RETURN,REMOVE LOADED MODULE       MACT0530
         B     MODX&SYSNDX         EXIT                                 MACT0540
         SPACE 1                                                        MACT0550
MODI&SYSNDX DS    0H               ERROR HANDLING ROUTINE               MACT0560
         WTO   '$MODINIT ERROR - &PROGRAM NOT CALLED',                 CMACT0570
               ROUTCDE=(2,10),DESC=(4)  WARN OPERATOR                   MACT0580
         B     MODX&SYSNDX         AND EXIT                             MACT0590
         SPACE 2                                                        MACT0600
MODP&SYSNDX DC    H'1'             BLDL PARAMETER LIST                  MACT0610
         DC    H'60'               ONE SIXTY-BYTE ENTRY                 MACT0620
MODN&SYSNDX DC    CL8'&PROGRAM'    PROGRAM NAME                         MACT0630
         DC    52X'00'             DIRECTORY INFORMATION                MACT0640
         SPACE 1                                                        MACT0650
MODX&SYSNDX DS    0H               END OF EXTRA INITIALISATION          MACT0660
.END     MEND                                                           MACT0670
