         MACRO                                                          MACQ0130
&NAME   $SRVEXIT &DOC=NO                                                MACQ0140
         AIF   ('&DOC' NE 'YES').NODOC                                  MACQ0150
         SPACE 1                                                        MACQ0160
*        THE PURPOSE OF THIS MACRO IS TO RETURN TO A MODIFICATION RTN   MACQ0170
*         FROM A SERVICE ROUTINE.                                       MACQ0180
         SPACE 1                                                        MACQ0190
*        CORRECT FORM IS :-                                             MACQ0200
*     $SRVEXIT <DOC=NO | YES>      PRODUCE DOCUMENTATION ( DEFAULT NO ) MACQ0210
         SPACE 1                                                        MACQ0220
*        THIS MACRO ASSUMES THAT NORMAL ROUTINE REGISTER ASSIGNMENTS    MACQ0230
*         ARE STILL IN EFFECT, AND SPECIFICALLY THAT LINK CONTAINS THE  MACQ0240
*         RETURN ADDRESS.                                               MACQ0250
         SPACE 1                                                        MACQ0260
.NODOC   ANOP                                                           MACQ0270
&NAME    BR    LINK                RETURN TO CALLER                     MACQ0280
         MEND                                                           MACQ0290
