         MACRO
&NAME    BER   &RX
&NAME    BCR   8,&RX
         MEND
