         MACRO
&NAME    BHR   &RX
&NAME    BCR   2,&RX
         MEND
