         MACRO
&NAME    BLR   &RX
&NAME    BCR   4,&RX
         MEND
