         MACRO
&NAME    BNER  &RX
&NAME    BCR   7,&RX
         MEND
