         MACRO
&NAME    BNOR  &RX
&NAME    BCR   14,&RX
         MEND
