         MACRO
&NAME    BOR   &RX
&NAME    BCR   1,&RX
         MEND
