         MACRO
&NAME    BPR   &RX
&NAME    BCR   2,&RX
         MEND
