         MACRO
&NAME    BZR   &RX
&NAME    BCR   8,&RX
         MEND
