//IEFU83 JOB (5806,5),'** FOR J. NOLS **',CLASS=N                          00100
//LIBRA EXEC LIBRARYN,FILE=MVS                                             00200
//SYSIN DD *                                                               00300
-OPT                                                                       00400
-SEL IEFU83,FU83,LIST,EXEC,VERS=1011                                       00500
-REP ALL                                                                   00600
         TITLE 'IEFU83 - INTERNAL MACROS'                               U8300700
         MACRO                                                          U8300800
&NAME  RTNDEF  &TABLE,&RECNO,&RTN                                       U8300900
.*                                                                      U8301000
.*       CREATE AN ENTRY IN THE TABLE OF ROUTINE ADDRESSES              U8301100
.*        ASSOCIATED WITH THE SMF RECORDS.  THE SMF RECORD TYPE IS      U8301200
.*        USED AS A SUBSCRIPT TO EXTRACT THE REQUIRED ROUTINE ADDRESS.  U8301300
.*                                                                      U8301400
         ORG   &TABLE+(&RECNO.*4) ORG TO REQUIRED TABLE ENTRY           U8301500
         DC    A(&RTN)             SPECIFY ROUTINE ADDRESS              U8301600
         MEND                                                           U8301700
         SPACE 5                                                        U8301800
         MACRO                                                          U8301900
&NAME    CSID  &NONAME                                                  U8302000
.*                                                                      U8302100
.*       IDENTIFY THE MODULE IN THE EVENT OF A DUMP                     U8302200
.*                                                                      U8302300
         LCLC  &NAME1                                                   U8302400
&NAME1   SETC  '&NAME'                                                  U8302500
         AIF   ('&NONAME' EQ 'NONAME').A01                              U8302600
&NAME1   DC    CL8'&SYSECT'        NAME OF CSECT                        U8302700
&NAME1   SETC  ' '                                                      U8302800
.A01           ANOP                                                     U8302900
&NAME1   DC    CL8'&SYSDATE'       DATE OF ASSEMBLY                     U8303000
         DC    CL8'&SYSTIME'       TIME OF ASSEMBLY                     U8303100
         MEND                                                           U8303200
         EJECT                                                          U8303300
         MACRO                                                          U8303400
&NAME    SUBIN &DUMMY,&SAVE=                                            U8303500
.*                                                                      U8303600
.*       SUBIN ,                   ENTER ROUTINE                        U8303700
.*       SUBIN SAVE=ALL            SAVE ALL REGISTERS                   U8303800
.*       SUBIN SAVE=(R1,R2,R3)     PRESERVE SPECIFIED REGISTERS         U8303900
.*                                                                      U8304000
.*       THE MACROS 'SUBIN' AND 'SUBOUT' ARE USED TO PRESERVE REGISTER  U8304100
.*        CONTENTS AT ENTRY TO A SUB-ROUTINE, AND TO RESTORE THEM UPON  U8304200
.*        EXIT.  THESE MACROS DIFFER FROM THE STANDARD SUBIN/SUBOUT IN  U8304300
.*        THAT THEY GENERATE RE-ENTRANT CODE, UTILISING A DYNAMICALLY   U8304400
.*        ASSIGNED SAVE AREA GETMAINED BY THE PROGRAM AT ENTRY.         U8304500
.*                                                                      U8304600
.*       ( THE MORE ASTUTE OF YOU WILL NOTICE A CERTAIN SIMILARITY      U8304700
.*        BETWEEN THESE MACROS AND THOSE I WROTE FOR JES2 ).            U8304800
.*                                                                      U8304900
         GBLA  &REGSC                                                   U8305000
         GBLA  &REGDTAB(16)                                             U8305100
         GBLC  &REGRTAB(16)                                             U8305200
         GBLA  &REGNREG                                                 U8305300
         GBLC  &REGSD,&REGSALL                                          U8305400
         LCLA  &LOOP,&DISP                                              U8305500
         LCLA  &N,&S                                                    U8305600
         LCLC  &R,&P,&PP                                                U8305700
         AIF   ('&REGSD' NE 'ON').PREVOK                                U8305800
         MNOTE 16,'PREVIOUS $REGSAVE NOT FOLLOWED BY A $REGREST'        U8305900
.PREVOK  ANOP                                                           U8306000
&REGSD   SETC  'ON'                                                     U8306100
&REGSALL SETC  ' '                                                      U8306200
&LOOP    SETA  0                                                        U8306300
.LOOPE1  ANOP                                                           U8306400
&LOOP    SETA  &LOOP+1                                                  U8306500
         AIF   (&LOOP GT 16).LOOPX1                                     U8306600
&REGRTAB(&LOOP) SETC ''                                                 U8306700
         AGO   .LOOPE1                                                  U8306800
.LOOPX1  ANOP                                                           U8306900
&LOOP    SETA  0                                                        U8307000
.LOOPE2  ANOP                                                           U8307100
&LOOP    SETA  &LOOP+1                                                  U8307200
         AIF   (&LOOP GT 16).LOOPX2                                     U8307300
&REGDTAB(&LOOP) SETA 0                                                  U8307400
         AGO   .LOOPE2                                                  U8307500
.LOOPX2  ANOP                                                           U8307600
&REGNREG SETA  N'&SAVE                                                  U8307700
         AIF   ('&SAVE' NE '').START                                    U8307800
&NAME    DS    0H                  ENTER ROUTINE                        U8307900
         MEXIT                                                          U8308000
.START   ANOP                                                           U8308100
&NAME    L     R9,DREGCNT          GET COUNT OF SLOTS IN USE            U8308200
         SLL   R9,2                MULTIPLY BY 4 FOR INDEX              U8308300
         LA    R9,DREGSAVE(R9)     POINT AT 1ST AVAILABLE SLOT          U8308400
         AIF   ('&SAVE' NE 'ALL').SAVE1ST                               U8308500
&REGSALL SETC  'ALL'                                                    U8308600
&REGNREG SETA  16                                                       U8308700
         STM   R0,R15,0(R9)        PRESERVE ALL REGISTERS IN SAVE AREA  U8308800
         AGO   .LOOPX                                                   U8308900
.SAVE1ST ANOP                                                           U8309000
&LOOP    SETA  0                                                        U8309100
&DISP    SETA  0                                                        U8309200
.LOOP    ANOP                                                           U8309300
&LOOP    SETA  &LOOP+1                                                  U8309400
         AIF   (&LOOP GT &REGNREG).LOOPX                                U8309500
         ST    &SAVE(&LOOP),&DISP.(R9) PRESERVE REGISTER IN NEXT SLOT   U8309600
&REGDTAB(&LOOP) SETA &DISP                                              U8309700
&REGRTAB(&LOOP) SETC '&SAVE(&LOOP)'                                     U8309800
&DISP    SETA  &DISP+4                                                  U8309900
         AGO   .LOOP                                                    U8310000
.LOOPX   ANOP                                                           U8310100
         L     R9,DREGCNT          GET COUNT OF SLOTS USED UP TO NOW    U8310200
         LA    R9,&REGNREG.(,R9)   INCREMENT BY SLOTS USED HERE         U8310300
         ST    R9,DREGCNT          PRESERVE UPDATED COUNT OF USED SLOTS U8310400
         MEXIT                                                          U8310500
         MEND                                                           U8310600
         EJECT                                                          U8310700
         MACRO                                                          U8310800
&NAME    SUBOUT &DUMMY,&RETURN=(R4)                                     U8310900
.*                                                                      U8311000
.*       IN ADDITION TO UTILISING A RE-ENTRANT PROGRAMMING TECHNIQUE,   U8311100
.*        THIS SUBOUT MACRO DIFFERS FROM THE STANDARD ONE IN THAT IT    U8311200
.*        AUTOMATICALLY RESTORES ALL THE REGISTERS PRESERVED BY THE     U8311300
.*        PRECEDING SUBIN MACRO, INSTEAD OF REQUIRING A LIST OF         U8311400
.*        REGISTERS TO BE RESTORED.  THIS IS PRIMARILY BECAUSE THE      U8311500
.*        SAVE/RESTORE TECHNIQUE USED REQUIRES ALL REGISTERS SAVED TO   U8311600
.*        BE RESTORED, AND IF THE PROGRAMMER FORGETS TO PUT A REGISTER  U8311700
.*        IN THE RESTORE LIST RESULTS WOULD BE, TO USE THE CLASSIC      U8311800
.*        PHRASE, UNPREDICTABLE.                                        U8311900
.*                                                                      U8312000
         GBLA  &REGSC                                                   U8312100
         GBLC  &REGRTAB(16)                                             U8312200
         GBLA  &REGDTAB(16)                                             U8312300
         GBLA  &REGNREG                                                 U8312400
         GBLC  &REGSD,&REGSALL                                          U8312500
         LCLA  &LOOP,&RCNT                                              U8312600
         LCLA  &N,&S                                                    U8312700
         LCLC  &R,&P,&PP,&B,&LABEL                                      U8312800
&REGSD  SETC  'OFF'                                                     U8312900
&LABEL   SETC  '&NAME'                                                  U8313000
&LOOP    SETA  0                                                        U8313100
&RCNT    SETA  0                                                        U8313200
         AIF   (&REGNREG EQ 0).RET                                      U8313300
&LABEL   LA    R9,&REGNREG         GET NUMBER REGISTERS RESTORED        U8313400
         S     R9,DREGCNT          SUBTRACT THOSE USED UP TILL NOW      U8313500
         LCR   R9,R9               GET NEW (LOWER) TOTAL +VE            U8313600
         ST    R9,DREGCNT          PRESERVE UPDATED SLOT COUNT          U8313700
         SLL   R9,2                MULTIPLY COUNT BY 4 FOR INDEX        U8313800
         LA    R9,DREGSAVE(R9)     POINT AT 1ST SLOT FOR THIS S/A       U8313900
&LABEL   SETC  ''                                                       U8314000
         AIF   ('&REGSALL' NE 'ALL').LOOP                               U8314100
         LM    R0,R15,0(R9)        RESTORE ALL REGISTERS FROM SAVE AREA U8314200
         AGO   .RET                                                     U8314300
.LOOP    ANOP                                                           U8314400
&LOOP    SETA  &LOOP+1                                                  U8314500
         AIF   (&LOOP GT &REGNREG).RET                                  U8314600
         L     &REGRTAB(&LOOP),&REGDTAB(&LOOP)(,R9)  RESTORE REGISTER   U8314700
         AGO   .LOOP                                                    U8314800
.RET     ANOP                                                           U8314900
&REGSALL SETC  ' '                                                      U8315000
&LABEL   BR    &RETURN(1)          RETURN TO THE CALLER                 U8315100
         MEXIT                                                          U8315200
         MEND                                                           U8315300
         TITLE 'ACCOUTING ROUTINE CONTROL BLOCK DSECT''S'                  15400
         $MVT                                                              15500
         EJECT                                                             15600
         $MCA                                                              15700
         EJECT                                                             15800
         $MASA                                                             15900
         EJECT                                                             16000
         $MAEQU                                                            16100
         TITLE 'IEFU83 - SMF RECORD SELECTION EXIT'                     U8316200
*********************************************************************** U8316300
*        NARRATIVE                                                    * U8316400
*********************************************************************** U8316500
         SPACE 1                                                        U8316600
* AUTHOR:      D.A.MOORCROFT                                            U8316700
* DATE:        JANUARY 78                                               U8316800
*              MODIFIED IN AUGUST 78 BY J. NOLS - TSG - BRUSSELS      +    16900
* PGMID:       IEFU83                                                   U8317000
         SPACE 3                                                        U8317100
*        THE PURPOSE OF THIS STANDARD EXIT IS TO DECIDE WHETHER OR      U8317200
*         NOT AN SMF RECORD IS TO BE WRITTEN TO THE SYS1.MAN DATA       U8317300
*         SET.  IT RECEIVES CONTROL IMMEDIATELY PRIOR TO THE WRITE,     U8317400
*         AND THE RETURN CODE SET IN REGISTER 15 DECIDES THE ACTION     U8317500
*         OF THE SYSTEM :-                                              U8317600
*              0 - WRITE THE RECORD                                     U8317700
*              4 - SUPPRESS THE RECORD                                  U8317800
         SPACE 5                                                        U8317900
*        INTERNALLY, THIS ROUTINE IS TABLE DRIVEN, AND ROUTINES ARE     U8318000
*         INVOKED AS APPROPRIATE TO ACCEPT A RECORD WITHOUT FURTHER     U8318100
*         PROCESSING, TO REJECT A RECORD WITHOUT FURTHER PROCESSING,    U8318200
*         OR TO REJECT A RECORD BASED UPON ITS CONTENTS.                U8318300
         SPACE 2                                                           18400
*       IN AUGUST 78 THIS EXIT HAS BEEN MODIFIED TO CALCULATE THE I/O +    18500
*        TIME. INFORMATION REQUIRED TO CALCULATE THE I/O TIME ARE     +    18600
*        EXTRACTED FROM SMF14,15 AND 64. THESE INFORMATION ARE :      +    18700
*        EXCP COUNT, BLOCK SIZE AND DEVICE TYPE. THE I/O TIME IS      +    18800
*        CALCULATED IN 1/100 SECS AND ADDED INTO APPROPRIATE ASA      +    18900
*        (LOCATED VIA THE JOB NAME) INTO 'ASASTPIO'.                  +    19000
*        ALSO, AT BEGINNINIG IF 'CVTUSER' DOES NOT CONTAIN THE        +    19100
*        ADDRESS OF MVT (I.E. CONTAINS 0), DYNAMICALLY INVOKE         +    19200
*        IEAVNPMC ROUTINE TO ACQUIRE AND INITIALISE THE ACCOUTING     +    19300
*        CONTROL BLOCKS.                                              +    19400
         SPACE 5                                                        U8319500
*        REGISTERS UPON ENTRY:-                                         U8319600
*         1 - ADDRESS OF RDW OF RECORD TO BE WRITTEN                    U8319700
*        13 - SAVE AREA ADDRESS                                         U8319800
*        14 - RETURN ADDRESS                                            U8319900
*        15- ROUTINE ADDRESS                                            U8320000
         TITLE 'IEFU83 - WORK AREA DSECT'                               U8320100
*********************************************************************** U8320200
*        DSECT FOR ( GETMAINED ) WORK AREA                            * U8320300
*********************************************************************** U8320400
         SPACE 1                                                        U8320500
WORKDSCT DSECT                                                          U8320600
SAVEAREA DS    18F                 REGISTER SAVE AREA                   U8320700
         SPACE 2                                                        U8320800
*        THE FOLLOWING FIELDS ( 'DREGCNT' AND 'DREGSAVE' ) ARE USED     U8320900
*         BY THE MACROS SUBIN AND SUBOUT TO SUPPLY DYNAMICALLY-ASSIGNED U8321000
*         SAVE AREA SLOTS.  'DREGCNT' CONTAINS THE COUNT OF CURRENTLY   U8321100
*         USED SLOTS, WHILE 'DREGSAVE' COMPRISES 64 SUCH SLOTS.  THIS   U8321200
*         FACILITATES THE USE OF SUB-ROUTINES TO ANY DEPTH, WITH ANY    U8321300
*         SUB-ROUTINE CALLED FROM ANYWHERE ELSE WITHOUT REQUIRING       U8321400
*         UNIQUELY ASSIGNED SAVE AREAS.  NOTE THAT NO CHECK IS MADE     U8321500
*         THAT THAT DREGSAVE IS EXCEEDED, SO IT BEHOVES YOU TO VERIFY   U8321600
*         THAT IT WILL ACCOMODATE THE REQUISITE NUMBER OF REGISTERS AT  U8321700
*         THE MAXIMUM SUB-ROUTINE DEPTH.                                U8321800
*                                                                       U8321900
DREGCNT  DS    F                   COUNT OF USED REG SAVE AREA SLOTS    U8322000
DREGSAVE DS    64F                 DYNAMICALLY ASSIGNED SAVE AREA       U8322100
         SPACE 2                                                        U8322200
WORKAREA DS    CL256               GENERAL PURPOSE WORK AREA            U8322300
WORKLGTH EQU   *-WORKDSCT          LENGTH OF TOTAL WORK AREA            U8322400
         TITLE 'IEFU83 - DSECT FOR JFCB (INCLUDED IN SOME SMF RECORDS)' U8322500
JFCB     DSECT                                                          U8322600
      IEFJFCBN ,                   GENERATE DSECT FOR JFCB              U8322700
         TITLE 'IEFU83 - DSECT FOR SMF4 RECORD '                      + U8322800
SMF4     DSECT                                                        +    22900
       IFASMFR 4                   GENERATE DSECT FOR SMF4 RECORD     +    23000
         TITLE 'IEFU83 - DSECT FOR SMF14/15 RECORDS'                    U8323100
SMF14    DSECT                                                          U8323200
       IFASMFR 14                  GENERATE DSECT FOR SMF14 RECORD      U8323300
         TITLE 'IEFU83 - DSECT FOR SMF17 RECORD '                       U8323400
SMF17    DSECT                                                          U8323500
       IFASMFR 17                  GENERATE DSECT FOR SMF17 RECORD      U8323600
         TITLE 'IEFU83 - DSECT FOR SMF34 RECORD '                       U8323700
SMF34    DSECT                                                          U8323800
       IFASMFR 34                  GENERATE DSECT FOR SMF34 RECORD      U8323900
         TITLE 'IEFU83 - DSECT FOR SMF64 RECORD '                       U8324000
SMF64    DSECT                                                        +    24100
       IFASMFR 64                  GENERATE DSECT FOR SMF64 RECORD    +    24200
         TITLE 'IEFU83 - EQUATES'                                       U8324300
*********************************************************************** U8324400
*        REGISTER EQUATES AND USAGE                                   * U8324500
*********************************************************************** U8324600
         SPACE 1                                                        U8324700
R0       EQU   0                                                        U8324800
R1       EQU   1                   GENERAL PURPOSE WORK REGISTER        U8324900
R2       EQU   2                                                        U8325000
R3       EQU   3                                                        U8325100
R4       EQU   4                   BAL RETURN ADDRESS                   U8325200
R5       EQU   5                                                        U8325300
R6       EQU   6                                                        U8325400
R7       EQU   7                                                        U8325500
R8       EQU   8                                                        U8325600
R9       EQU   9                   DYNAMIC SAVE AREA WORK REGISTER      U8325700
R10      EQU   10                  ADDRESS OF RDW || DATA               U8325800
R11      EQU   11                  BASE REGISTER 2                      U8325900
R12      EQU   12                  BASE REGISTER                        U8326000
R13      EQU   13                  SAVE AREA POINTER                    U8326100
R14      EQU   14                                                       U8326200
R15      EQU   15                                                       U8326300
         SPACE 5                                                        U8326400
*********************************************************************** U8326500
*        MISCELLANEOUS EQUATES                                        * U8326600
*********************************************************************** U8326700
         SPACE 1                                                        U8326800
SUBPOOL  EQU   0                   SUBPOOL FROM WHICH TO GETMAIN STORAG U8326900
SUBPL245 EQU   245                 SUBPOOL FROM WHICH TO GETMAIN SECOND U8327000
*                                  AND NEXT ASADDTAB SEGMENTS TABLE.    U8327100
         SPACE 1                                                        U8327200
W        EQU   X'96'               EQUATE USED TO SET COND CODE LOW     U8327300
X        EQU   X'95'               EQUATE USED TO SET COND CODE EQUAL   U8327400
Y        EQU   X'94'               EQUATE USED TO SET COND CODE HIGH    U8327500
*                                       E.G.     CLI   *,Y              U8327600
         TITLE 'IEFU83 - INITIALISATION'                                U8327700
*********************************************************************** U8327800
*        INITIALISATION                                               * U8327900
*********************************************************************** U8328000
         SPACE 1                                                        U8328100
IEFU83   CSECT                                                          U8328200
         USING IEFU83,R12,R11      ESTABLISH ADDRESSABILITY             U8328300
         USING WORKDSCT,R13        ESTABLISH WORK RAEA ADDRESSABILITY   U8328400
         B     28(R15)             BRANCH OVER IDENTIFYING CONSTANT     U8328500
         CSID  ,                   IDENTIFY NAME, RANK & SERIAL NUMBER  U8328600
         STM   14,12,12(R13)       SAVE REGISTERS                       U8328700
         LR    R12,R15             LOAD BASE REGISTER                   U8328800
         LA    R11,2048            ESTABLISH ...                        U8328900
         LA    R11,2048(R11,R12)    ... SECOND BASE REGISTER VALUE      U8329000
         L     R10,0(,R1)          OBTAIN RECORD ADDRESS FROM LINKAGE   U8329100
         BAL   R4,GETWORK          ACQUIRE WORK AREA                    U8329200
         BAL   R4,SETTFRR          ESTABLISH ESTAE ENVIRONMENT          U8329300
         L     R5,FLCCVT           GET MVT ADDRESS                    + U8329400
         L     R5,CVTUSER-CVTMAP(,R5) VIA THE CVT                     + U8329500
         LTR   R5,R5               IS MVT PRESENT ?                   + U8329600
         BNZ   MVTPRES             YES, BYPASS 'IEAVNPMC' PROCESSING  + U8329700
         LINK  EP=IEAVNPMC         NO, GO INITIALISE ACCTRTN C.B.     + U8329800
MVTPRES  EQU   *                                                      + U8329900
         BAL   R4,PROCESS          PERFORM NECESSARY PROCESSING         U8330000
         SPACE 2                                                        U8330100
*********************************************************************** U8330200
*        TERMINATION PROCESSING                                       * U8330300
*********************************************************************** U8330400
         SPACE 1                                                        U8330500
         LR    R8,R15              PRESERVE REG 15                      U8330600
         ESTAE 0                   DISENGAGE THE INTERACTIVE ESTAE      U8330700
         L     R0,GETMAIN          SET PARAMETER LIST IN REG 0          U8330800
         LR    R1,R13              POINT REG 1 AT THE AREA TO FREE      U8330900
         L     R13,4(R13)          RETRIEVE ADDRESS OF CALLER'S S/A     U8331000
      FREEMAIN R,LV=(0),A=(1)      FREEMAIN THE ACQUIRED MAIN STORAGE   U8331100
         L     R14,12(13)          RESTORE REGISTER 14                  U8331200
         LR    R15,R8              RESTORE REGISTER 15                  U8331300
         LM    R0,R12,20(R13)      RESTORE REGISTERS 0 - 12             U8331400
         MVI   12(R13),X'FF'       SET RETURN INDICATOR IN CALLER'S S/A U8331500
         BR    R14                 RETURN TO THE CALLER                 U8331600
         EJECT                                                          U8331700
*********************************************************************** U8331800
*        INITIALISATION:           ACQUIRE WORK AREA                  * U8331900
*********************************************************************** U8332000
         SPACE 1                                                        U8332100
GETWORK  SUBIN ,                   ENTER ROUTINE                        U8332200
         LR    R9,R13              PRESERVE SAVE AREA ADDRESS           U8332300
         L     R0,GETMAIN          SET GETMAIN PARM LIST IN REG 0       U8332400
       GETMAIN R,LV=(0)            ACQUIRE CORE                         U8332500
         LR    R13,R1              POINT R13 AT ACQUIRED MAIN STORAGE   U8332600
         ST    R13,8(R9)           PRESERVE S/A ADDRESS IN PREVIOUS     U8332700
         ST    R9,SAVEAREA+4       PRESERVE PREVIOUS ADDRESS IN THIS    U8332800
         XC    DREGCNT,DREGCNT     ZEROISE COUNT OF USEDD S/A SLOTS     U8332900
        SUBOUT ,                   RETURN TO CALLER                     U8333000
         EJECT                                                          U8333100
*********************************************************************** U8333200
*        INITIALISATION:           ESTABLISH ESTAE ENVIRONMENT        * U8333300
*********************************************************************** U8333400
         SPACE 1                                                        U8333500
SETTFRR  SUBIN ,                   ENTER ROUTINE                        U8333600
         TFRR  ,                   ESTABLISH ESTAE ENVIRONMENT          U8333700
        SUBOUT ,                   RETURN TO CALLER                     U8333800
         TITLE 'IEFU83 - MAIN-LINE LOGIC'                               U8333900
*********************************************************************** U8334000
*        MAINLINE LOGIC                                               * U8334100
*********************************************************************** U8334200
         SPACE 1                                                        U8334300
         USING SMF14,R10           ESTABLISH RECORD ADDRESSABILITY      U8334400
PROCESS  SUBIN SAVE=R4             PRESERVE RETURN ADDRESS              U8334500
SUBTAB1  SR    R2,R2               ZEROISE WORK REGISTER              + U8334600
         IC    R2,SMF14RTY         RETRIEVE RECORD TYPE               + U8334700
         SLL   R2,2                MULTIPLY BY 4 FOR INDEX            + U8334800
         A     R2,=A(RTNTABLE)     POINT R2 AT DESIRED RTN ADDRESS    + U8334900
         ICM   R15,15,0(R2)        SET RTN ADDRESS IN REG 15          + U8335000
         BZ    *+6                 BR TO ACCEPT IF NO RTN ADDRESS     + U8335100
         BALR  R4,R15              PERFORM THE APPROPRIATE ROUTINE    + U8335200
SUBTAB2  SR    R2,R2               ZEROISE WORK REGISTER              + U8335300
         IC    R2,SMF14RTY         RETRIEVE RECORD TYPE               + U8335400
         SLL   R2,2                MULTIPLY BY 4 FOR INDEX            + U8335500
         A     R2,=A(RTNTABIS)     POINT R2 AT DESIRED RTN ADDRESS    + U8335600
         ICM   R15,15,0(R2)        SET RTN ADDRESS IN REG 15          + U8335700
         BZ    ACCEPT              BR TO ACCEPT IF NO RTN ADDRESS     + U8335800
         BALR  R4,R15              PERFORM THE APPROPRIATE ROUTINE    + U8335900
         BNE   REJECT              BR IF THE RECORD IS NOT REQUIRED   + U8336000
ACCEPT   LA    R15,0               SET RETURN CODE TO ACCEPT RECORD     U8336100
         B     *+8                 BYPASS RESETTING RETURN CODE         U8336200
REJECT   LA    R15,4               SET RETURN CODE TO REJECT RECORD     U8336300
        SUBOUT ,                   RETURN TO CALLER                     U8336400
         DROP  R10                 DROP SMF RECORD ADDRESSABILITY       U8336500
         TITLE 'IEFU83 - RECORD PROCESSING ROUTINES'                    U8336600
*********************************************************************** U8336700
*        PROCESS SMF4 RECORDS                                         * U8336800
*********************************************************************** U8336900
         SPACE 1                                                        U8337000