JES2B608 TITLE '$? COMMAND PROCESSOR - CONTROL BLOCK GENERATION MACRO DCMKB00100
               EFINITIONS'                                              MKB00110
*                                                                       MKB00120
**** $HASPCB ****                  GENERATE HASP CONTROL BLOCKS         MKB00130
*                                                                       MKB00140
         MACRO                                                          MKB00150
         $HASPCB &DOC=NO,&LIST=NO                                       MKB00160
         GBLC  &PRINT,&GEN,&DATA                                        MKB00170
         PUSH  PRINT                                                    MKB00180
         PRINT &PRINT                                                   MKB00190
         $HCT  DOC=&DOC            GENERATE HASP HCT DSECT              MKB00200
         $AHCT DOC=&DOC            GENERATE MODS AHCT DSECT             MKB00210
         $DCT  DOC=&DOC            GENERATE HASP DCT DSECT              MKB00220
         $ADCT DOC=&DOC            GENERATE MODS ADCT DSECT             MKB00230
         $APCE DOC=&DOC            GENERATE MODS APCE DSECT             MKB00240
         $APCE DOC=NO,TYPE=SPCE    GENERATE MODS SECONDARY APCE DSECT   MKB00250
         $PCE  DOC=&DOC            GENERATE HASP PCE DSECT              MKB00260
         $COMWORK DOC=&DOC         GENERATE HASP COMWORK DSECT          MKB00270
         $BUFFER DOC=&DOC          GENERATE HASP BUFFER DSECT           MKB00280
         $CMB  DOC=&DOC            GENERATE HASP CMB DSECT              MKB00290
         $JCT  DOC=&DOC            GENERATE HASP JCT DSECT              MKB00300
         $UCM  LIST=&LIST          GENERATE OS UCM DSECT                MKB00310
         SPACE 1                                                        MKB00320
         POP   PRINT                                                    MKB00330
         PRINT &GEN,&DATA          SET ASSEMBLY PRINT OPTIONS           MKB00340
         MEND                                                           MKB00350
         EJECT                                                          MKB00360
         MACRO -- $COMSAY -- DEFINE COMMAND TABLE ENTRY                 MKB00370
&NAME    $COMSAY &VERB,&TEXT,&REDIR=0,&REJECT=0                         MKB00380
         LCLC  &C,&D                                                    MKB00390
&NAME    DS    0F                  DEFINE EXPLANATION TEXT              MKB00400
         DC    A(&TEXT)            ADDRESS OF START OF TEXT             MKB00410
         DC    AL1(0)                UNUSED                             MKB00420
         DC    AL1(&REDIR*16+&REJECT)  FLAG BYTES                       MKB00430
         AIF   (K'&VERB LT 2).A                                         MKB00440
         AIF   (K'&VERB EQ 3).B                                         MKB00450
         DC    CL2'&VERB'                                               MKB00460
         MEXIT                                                          MKB00470
.A       DC    CL1'&VERB',X'FF'                                         MKB00480
         MEXIT                                                          MKB00490
.B       ANOP                                                           MKB00500
&C       SETC  '&VERB'(1,1)                                             MKB00510
&D       SETC  '&VERB'(2,2)                                             MKB00520
         DC    CL1'&C',X'&D'                                            MKB00530
         MEND                                                           MKB00540
         EJECT                                                          MKB00550
         MACRO -- $TEXT -- CREATE A LINE OF EXPLANATORY TEXT            MKB00560
&NAME    $TEXT &MSG,&LAST                                               MKB00570
         AIF   ('&NAME' EQ '').NONAME                                   MKB00580
&NAME    EQU   *                   START OF TEXT ELEMENT                MKB00590
.NONAME  AIF   ('&LAST' NE '').ENDFLAG                                  MKB00600
         DC    AL1(0),AL1(L'TXT&SYSNDX) FLAG,LENGTH OF TEXT             MKB00610
         AGO   .MESAG                                                   MKB00620
.ENDFLAG ANOP                                                           MKB00630
         DC    AL1(128),AL1(L'TXT&SYSNDX) LAST LINE OF &NAME TEXT       MKB00640
.MESAG   ANOP                                                           MKB00650
TXT&SYSNDX DC  C&MSG                                                    MKB00660
         MEND                                                           MKB00670
         TITLE 'HASP COMMAND PROCESSOR FUNCTION MACRO DEFINITIONS'      MKB00680
         TITLE 'JES2B608 - AUXILIARY COMMAND PROCESSOR'                 MKB00690
JES2B608 CSECT                     AUXILIARY COMMAND PROCESSOR          MKB00700
         SPACE 2                                                        MKB00710
**********************************************************************  MKB00720
*                                                                     * MKB00730
*        PROGRAM ID. :             JES2B608                           * MKB00740
*                                                                     * MKB00750
*        DATE WRITTEN :            APRIL 1977                         * MKB00760
*                                                                     * MKB00770
*        AUTHOR :                  D.H.CARTWRIGHT.                    * MKB00780
*                                                                     * MKB00790
*        LOCATION :                MONSANTO MISD/TSG BRUSSELS         * MKB00800
*                                                                     * MKB00810
*********************************************************************** MKB00820
         EJECT                                                          MKB00830
*********************************************************************** MKB00840
*                                                                     * MKB00850
*        PURPOSE                                                      * MKB00860
*       ---------                                                     * MKB00870
*                                                                     * MKB00880
*        THIS IS A MONSANTO JES2 MODIFICATION MODULE.                 * MKB00890
*        IT IT LOADED AT JES2 INITIALISATION UPON REQUEST VIA         * MKB00900
*        JES2B001,THE MONSANTO INITIALISATION MODULE,AND IS           * MKB00910
*        ENTERED FROM JES2B002 AS THE PROCESSOR FOR '?' COMMANDS.     * MKB00920
*                                                                     * MKB00930
*        THE COMMAND,BROKEN DOWN INTO OPERANDS BY HASPCOMM, IS        * MKB00940
*        COMPARED AGAINST A TABLE OF COMMANDS WHICH THIS ROUTINE      * MKB00950
*        CAN EXPLAIN AND WHEN A MATCH IS FOUND LINES OF EXPLANATION   * MKB00960
*        ARE WRITTEN TO THE OPERATOR VIA A MONSANTO $CWTO-TYPE        * MKB00970
*        SERVICE ROUTINE (JES2B011).EACH LINE OF TEXT HAS A TWO-BYTE  * MKB00980
*        LENGTH/FLAG FIELD AT THE START TO ENABLE VARIABLE LENGTH     * MKB00990
*        LINES TO BE WRITTEN AND ALSO TO ENABLE THE END OF TEXT       * MKB01000
*        TO BE RECOGNISED.THERE ARE STANDARD BULLETINS FOR MOST       * MKB01010
*        SITUATIONS.RETURN IS TO HASPCOMM VIA JES2B002 WITH THE       * MKB01020
*        CONDITION CODE LOW TO STOP JES2 RE-PROCESSING THE COMMAND.   * MKB01030
*                                                                     * MKB01040
*        COMMAND SUB-PROCESSOR CONVENTIONS                            * MKB01050
*                                                                     * MKB01060
* CONTENTS OF REGISTERS UPON ENTRY TO EACH COMMAND SUB-PROCESSOR      * MKB01070
*                                                                     * MKB01080
*        R0    = UNPREDICTABLE                                        * MKB01090
*        R1    = UNPREDICTABLE                                        * MKB01100
*        R2    = UNPREDICTABLE                                        * MKB01110
*        R3    = FIRST OPERAND POINTER                                * MKB01120
*        R4    = COUNT OF 4                                           * MKB01130
*        R5    = LAST OPERAND POINTER ( SET FOR BXLE R3,R4,... )      * MKB01140
*        R6    = AHCTDSCT                                             * MKB01150
*        R7    = APCE OF PROCESSOR                                    * MKB01160
*        BASE3 = UNPREDICTABLE - USED FOR $SERVICE ADDRESSABILITY     * MKB01170
*        R10   = UNPREDICTABLE                                        * MKB01180
*        BASE1 = HCTDSECT                                             * MKB01190
*        BASE2 = BASE REGISTER OF PROCESSOR                           * MKB01200
*        SAVE  = PCE OF COMMAND PROCESSOR                             * MKB01210
*        LINK  = RETURN ADDRESS TO THIS MODULE                        * MKB01220
*        R15   = UNPREDICTABLE                                        * MKB01230
*                                                                     * MKB01240
*        IN ORDER TO ISSUE A $SERVICE CWTO REQUEST THE COMMAND        * MKB01250
*        PROCESSOR MUST ACQUIRE A WORK APCE AND SAVE THE $WTO         * MKB01260
*        FIELDS OF THE COMM PCE WORK AREA,OTHERWISE THE ORIGINAL      * MKB01270
*        COMMAND WILL BE LOST.THIS WORK AREA SHOULD BE RESTORED       * MKB01280
*        BEFORE RETURN TO JES2B002,EVEN IF THE COMMAND WILL NOT       * MKB01290
*        BE PROCESSED BY JES2.                                        * MKB01300
*                                                                     * MKB01310
*********************************************************************** MKB01320
         EJECT                                                          MKB01330
*********************************************************************** MKB01340
*                                                                     * MKB01350
* EXAMPLE EDIT OF COMMAND TEXT BEFORE ENTRY TO SUB-COMMAND PROCESSOR  * MKB01360
*                                                                     * MKB01370
* ORIGIONAL IN $WTO BUFFER  ( S OVER CHARACTER = LOWER CASE )         * MKB01380
*                                                                     * MKB01390
*         S  S S S    S S S    S    S    S                            * MKB01400
*        $V  A B C, ' A B,C '' D ', D '' E                            * MKB01410
*                                                                     * MKB01420
* FORM PASSED TO COMMAND SUB-PROCESSOR                                * MKB01430
*                                                                     * MKB01440
*        $VABC,' A B,C ' D ',D'E                                      * MKB01450
*          1   2             3   4                                    * MKB01460
*                                                                     * MKB01470
*        $ IS LOCATED AT COMMAND                                      * MKB01480
*        V IS SINGLE CHARACTER FORM OF VERB                           * MKB01490
*                                                                     * MKB01500
*        R3 POINTS TO FIRST OF OPERAND POINTER TABLE WHICH, IN THIS   * MKB01510
*        EXAMPLE, CONTAINS FOUR WORDS OF ADDRESSES WHICH IN TURN      * MKB01520
*        LOCATES THE BEGINNING OF EACH OPERAND ( INCLUDING A NULL     * MKB01530
*        END OPERAND ). THESE LOCATIONS ARE DENOTED BY REFERANCE      * MKB01540
*        POINTS 1, 2, 3, AND 4 RESPECTIVELY. USING BXLE R3,R4,...     * MKB01550
*        INSTRUCTION WILL FALL THROUGH WITH R3 POINTING TO COMNULOP   * MKB01560
*                                                                     * MKB01570
*********************************************************************** MKB01580
         SPACE 3                                                        MKB01590
         COPY  $HASPGEN            HASP OPTIONS                         MKB01600
         TITLE 'CONTROL BLOCK OPTIONS'                                  MKB01610
         $SYSPARM (ON,GEN,DATA,NO,NO)        SET DOCUMENTATION OPTIONS  MKB01620
         SPACE 3                                                        MKB01630
*                                                                       MKB01640
*        GENERATE HASP CONTROL BLOCKS                                   MKB01650
*                                                                       MKB01660
         SPACE 2                                                        MKB01670
         $HASPCB DOC=&DOC,LIST=&LIST GENERATE HASP CONTROL BLOCKS       MKB01680
         TITLE 'COMMAND PROCESSOR - ENTRY POINT PROCESSING'             MKB01690
JES2B608 $MODNTRY CSECT=YES,EXIT=EXITB608  MODIFICATION ENTRY           MKB01700
         $GETAPCE SPCE,DOC=&DOC    AQUIRE A STORAGE BLOCK               MKB01710
         L     R10,APCESNXT        GET ITS ADDRESS                      MKB01720
         USING SPCEDSCT,R10        ESTABLISH ADDRESSABILITY FOR IT      MKB01730
         MVC   SPCEAREA(COMPNTER-PCEWORK),PCEWORK SAVE PCEWORK AREA     MKB01740
         LA    R15,APCEUSER        POINT AT MY OWN WORK AREA            MKB01750
         ST    R15,APCEUSER        POINT IT AT ITS NEXT FREE AREA       MKB01760
         TITLE 'COMMAND PROCESSOR - COMMAND TABLE SEARCH'               MKB01770
COMLOOK  DS    0H                  SEARCH TABLE FOR OPERAND             MKB01780
         $REGSAVE SAVE=(R3,R4,R5)  SAVE POINTERS                        MKB01790
         L     R1,0(,R3)           LOAD OPERAND POINTER                 MKB01800
         CLC   $CCOMCHR,0(R1)      HASP PREFIX?                         MKB01810
         BE    *+4+6+4             YES,IGNORE IT                        MKB01820
         CLC   $RCOMCHR,0(R1)      HOW ABOUT REMOTE PREFIX?             MKB01830
         BNE   *+4+4               NO,MUST BE REAL DATA                 MKB01840
         LA    R1,1(,R1)           YES,SKIP OVER IT                     MKB01850
         CLI   0(R1),C' '          IS IT JUST '$?'                      MKB01860
         BE    COMDEFLT            YES,EXPLAIN IT                       MKB01870
         LA    WC,COMFASTR         POINT TO FAST LOOKUP TABLE        R4 MKB01880
         LA    WA,4                SET INCREMENT FOR TABLE SCAN      R4 MKB01890
         LA    WB,COMFSTND         SET COMPORAND FOR TABLE SCAN         MKB01900
         CLC   0(1,WC),0(R1)       CHECK FOR HIT IN TABLE               MKB01910
         BH    COMBAD              IF TABLE HIGHER -- ERROR             MKB01920
         BE    *+12                IF EQUAL -- GO GET TEXT              MKB01930
         BXLE  WC,WA,*-14          ELSE LOOP THROUGH TABLE              MKB01940
         B     COMBAD              IF NOT FOUND -- ERROR                MKB01950
         SPACE 1                                                        MKB01960
         ICM   WC,7,1(WC)          GET COMMAND TABLE ADDRESS            MKB01970
         BZ    COMNOT              EXIT IF NONE                         MKB01980
         LA    WA,COMTEL           SET INCREMENT TABLE LENGTH           MKB01990
         LA    WB,COMTABE          SET COMPORAND FOR TABLE SCAN         MKB02000
COMSRL   CLC   COMTVB(1,WC),0(R1)    CHECK FOR VERB IN RANGE            MKB02010
         BH    COMBAD              HIGHER IS ERROR                      MKB02020
         CLC   COMTVB+1(1,WC),1(R1)     LOOK AT SECOND CHARACTER        MKB02030
         BE    COMFND              EXIT IF FOUND                        MKB02040
         CLI   COMTVB+1(WC),X'FF'  IS IT THE LAST ENTRY FOR COMMAND     MKB02050
         BE    COMFND              EXIT IF FOUND                        MKB02060
COMSRC   BXLE  WC,WA,COMSRL        LOOP                                 MKB02070
         B     COMBAD              ERROR IF NOT FOUND                   MKB02080
         SPACE 2                                                        MKB02090
COMNEXT  $REGREST ,                RELOAD OPERAND POINTERS              MKB02100
         BXLE  R3,R4,COMLOOK       TEST EVERY OPERAND                   MKB02110
         B     COMANSWR            THEN REPLY                           MKB02120
         TITLE 'COMMAND PROCESSOR - SAVE OPERAND DATA'                  MKB02130
*********************************************************************** MKB02140
*                                                                     * MKB02150
*        THIS ROUTINE SAVES THE ADRESS OF THE TEXT FOUND IN THE       * MKB02160
*        LOOK-UP TABLE FOR EVERY OPERAND.THUS WHEN ALL OPERANDS HAVE  * MKB02170
*        BEEN FOUND IT IS SAFE TO OVER-WRITE THE ORIGINAL COMMAND     * MKB02180
*        AREA IN $SERVICE CWTO PROCESSING BECAUSE :                   * MKB02190
*        A) WE NOW HAVE OUR OWN POINTERS                              * MKB02200
*        B)WE WILL RESTORE IT BEFORE RETURNING TO JES2.               * MKB02210
*                                                                     * MKB02220
*        POINTERS ARE SAVED IN THE APCEUSER AREA.THE FIRST WORD IS    * MKB02230
*        MAINTAINED AS A POINTER TO THE LAST OPERAND POINTER FOR      * MKB02240
*        BXLE LOOP PROCESSING.                                        * MKB02250
*                                                                     * MKB02260
*********************************************************************** MKB02270
         SPACE 2                                                        MKB02280
COMFND   DS    0H                  COMMAND FOUND,SAVE TEXT ADDRESS      MKB02290
         L     R15,APCEUSER        PICK LAST OPERAND POINTER            MKB02300
         MVC   4(4,R15),COMTXT(WC) SAVE TEXT ADDRESS                    MKB02310
         LA    R15,4(,R15)         UPDATE OPERAND POINTER               MKB02320
         ST    R15,APCEUSER        AND SAVE NEW POINTER                 MKB02330
         B     COMNEXT             GO BACK FOR NEXT OPERAND             MKB02340
         SPACE 2                                                        MKB02350
COMNOT   DS    0H                  NO TEXT AVAILABLE FOR COMMAND        MKB02360
         L     R3,APCEUSER         PICK UP LAST OPERAND POINTER         MKB02370
         LA    R3,4(,R3)           INCREMENT ONE SLOT                   MKB02380
         LA    R4,NOTEXT           GET APOLOGIES MESSAGE                MKB02390
         ST    R4,0(,R3)           SAVE AS NEXT OPERAND                 MKB02400
         ST    R3,APCEUSER         SAVE NEW POINTER                     MKB02410
         B     COMNEXT             GO BACK FOR NEXT OPERAND             MKB02420
         SPACE 3                                                        MKB02430
*********************************************************************** MKB02440
*        SET DEFAULT TEXT FOR $? ONLY PROCESSING                      * MKB02450
*********************************************************************** MKB02460
         SPACE 2                                                        MKB02470
COMDEFLT DS    0H                  DEFAULT MESSAGE FOR NO OPERAND       MKB02480
         L     R3,APCEUSER         GET LAST OPERAND POINTER             MKB02490
         LA    R3,4(,R3)           UPDATE BY ONE                        MKB02500
         LA    R1,TEXTB608         ANSWER IS OUR OWN TEXT               MKB02510
         ST    R1,0(,R3)           SAVE IT                              MKB02520
         ST    R3,APCEUSER         SAVE IT                              MKB02530
         B     COMANSWR            GO TELL OPERATOR                     MKB02540
         TITLE 'COMMAND PROCESSOR - TEXT LIST PROCESSING'               MKB02550
*********************************************************************** MKB02560
*                                                                     * MKB02570
*        THIS ROUTINE PERFORMS THE REAL FUNCTION OF THIS COMMAND      * MKB02580
*        PROCESSOR - IT OUTPUTS LINES OF EXPLANATION TEXT FOR EVERY   * MKB02590
*        OPERAND.THE ADDRESSES OF THE BLOCKS OF TEXT ARE PICKED UP    * MKB02600
*        FROM THE APCE WORK AREA WHERE THEY HAVE BEEN STORED BY THE   * MKB02610
*        OPERAND SCANNING ROUTINES.EACH LINE OF TEXT IS PREFIXED      * MKB02620
*        BY A TWO BYTE FIELD CONTAINING THE LENGTH OF THE LINE.       * MKB02630
*        IF THE HIGH ORDER BIT OF THE FIRST BYTE IS ON IT SIGNIFIES   * MKB02640
*        THAT THIS IS THE LAST LINE OF THE MESSAGE.                   * MKB02650
*                                                                     * MKB02660
*********************************************************************** MKB02670
         SPACE 2                                                        MKB02680
COMANSWR DS    0H                  REPLY TO OPERATOR                    MKB02690
         LA    R3,APCEUSER         POINT AT FIRST OPERAND               MKB02700
         LA    R4,4                SET INCREMENT                        MKB02710
         L     R5,APCEUSER         PICK UP LAST OPERAND POINTER         MKB02720
         SPACE 1                                                        MKB02730
TEXTLOOP DS    0H                  ANSWER EVERY QUERY                   MKB02740
         BXLE  R3,R4,EXPLAIN       GO PROCESS AN OPERAND                MKB02750
         B     EXITB608            RETURN WHEN FINISHED                 MKB02760
         SPACE 2                                                        MKB02770
EXPLAIN  DS    0H                  OUTPUT ONE EXPLANATION               MKB02780
         L     R2,0(,R3)           PICK UP OPERAND POINTER              MKB02790
NEXTLINE DS    0H                  OUTPUT NEXT LINE OF TEXT             MKB02800
         MVI   COMMAND,C' '        BLANK OUT                            MKB02810
         MVC   COMMAND+1(L'COMMAND-1),COMMAND REPLY AREA                MKB02820
         SR    R0,R0               CLEAR LENGTH REGISTER                MKB02830
         IC    R0,1(,R2)           PICK UP LENGTH OF LINE               MKB02840
         LA    R1,2(,R2)           PICK UP ADDRESS OF TEXT              MKB02850
         $MWTO MSG=(R1),L=(R0)     GO OUTPUT LINE TO REQUESTOR          MKB02860
         SR    R1,R1               CLEAR REGISTER                       MKB02870
         ICM   R1,1,0(R2)          PICK UP FLAG BYTE AND TEST IT        MKB02880
         BNZ   TEXTLOOP            GET NEXT OPERAND IF LAST LINE        MKB02890
         IC    R1,1(,R2)           PICK UP LINE LENGTH                  MKB02900
         LA    R2,2(R1,R2)         UPDATE LINE POINTER                  MKB02910
         B     NEXTLINE            GO OUTPUT NEXT LINE                  MKB02920
         SPACE 2                                                        MKB02930
COMBAD   DS    0H                  INVALID OPERAND ENCOUNTERED          MKB02940
         L     R3,APCEUSER         PICK UP LAST POINTER                 MKB02950
         LA    R3,4(,R3)           INCREMENT ONE SLOT                   MKB02960
         LA    R4,ERRORTXT         POINT TO 'TWIT' MESSAGE              MKB02970
         ST    R4,0(,R3)           SAVE IT FOR LATER                    MKB02980
         ST    R3,APCEUSER         SAVE LAST OPERAND ADDRESS            MKB02990
         B     COMNEXT             TRY NEXT OPERAND                     MKB03000
         TITLE 'COMMAND PROCESSOR - EXIT ROUTINES'                      MKB03010
EXITB608 $MODEXIT NO               RETURN TO JES2 CODE                  MKB03020
         TITLE 'COMMAND PROCESSOR - COMMAND TABLES'                     MKB03030
COMTAB   DS    0F                  COMMAND / TEXT    LOOK-UP TABLE      MKB03040
COMTBLHX $COMSAY ?,TEXTB608,REJECT=COMJ QUERY JES2 FUNCTIONS            MKB03050
COMTA    $COMSAY AL,ALLTEXT,REJECT=COMJ COMMAND SUMMARY                 MKB03060
         $COMSAY A,TEXTA,REJECT=COMJ $A COMMAND                         MKB03070
COMTB    $COMSAY B,TEXTB,REJECT=COMJ $B COMMAND                         MKB03080
COMTC    $COMSAY C,TEXTC,REJECT=COMJ $C COMMAND                         MKB03090
COMTD    $COMSAY DA,TEXTDA,REJECT=COMJ DISPLAY ACTIVE                   MKB03100
         $COMSAY DD,TEXTDD,REJECT=COMJ DISPLAY DISKS                    MKB03110
         $COMSAY DF,TEXTDF,REJECT=COMJ DISPLAY FORMS                    MKB03120
         $COMSAY DI,TEXTDI,REJECT=COMJ DISPLAY INITIATORS               MKB03130
         $COMSAY DJ,TEXTDJ,REJECT=COMJ DISPLAY JOBS                     MKB03140
         $COMSAY DM,TEXTDM,REJECT=COMJ DISPLAY MESSAGES                 MKB03150
         $COMSAY DN,TEXTDN,REJECT=COMJ DISPLAY NAMES                    MKB03160
         $COMSAY DO,TEXTDO,REJECT=COMJ DISPLAY REQUESTS                 MKB03170
         $COMSAY DQ,TEXTDQ,REJECT=COMJ DISPLAY QUEUES                   MKB03180
         $COMSAY DT,TEXTDT,REJECT=COMJ DISPLAY TAPES                    MKB03190
         $COMSAY DU,TEXTDU,REJECT=COMJ DISPLAY UNITS                    MKB03200
         $COMSAY D,TEXTD,REJECT=COMJ DISPLAY COMMAND SUMMARRY           MKB03210
COMTE    $COMSAY E,TEXTE,REJECT=COMJ $E COMMAND                         MKB03220
COMTF    $COMSAY F,TEXTF,REJECT=COMJ $F COMMAND                         MKB03230
COMTH    $COMSAY H,TEXTH,REJECT=COMJ $H COMMAND                         MKB03240
COMTI    $COMSAY I,TEXTI,REJECT=COMJ $I COMMAND                         MKB03250
COMTL    $COMSAY L,TEXTL,REJECT=COMJ $L COMMAND                         MKB03260
COMTN    $COMSAY N,TEXTN,REJECT=COMJ $N COMMAND                         MKB03270
COMTOO   $COMSAY O,TEXTO,REJECT=COMJ $O COMMAND                         MKB03280
COMTP    $COMSAY P,TEXTP,REJECT=COMJ $P COMMAND                         MKB03290
COMTR    $COMSAY R,TEXTR,REJECT=COMJ RE-ROUTE COMMAND                   MKB03300
COMTS    $COMSAY S,TEXTP,REJECT=COMJ $S COMMAND                         MKB03310
COMTT    $COMSAY TA,TEXTTA,REJECT=COMJ $TA COMMAND                      MKB03320
         $COMSAY TJ,TEXTTJ,REJECT=COMJ $TJ COMMAND                      MKB03330
         $COMSAY TL,TEXTTL,REJECT=COMJ $TL COMMAND                      MKB03340
         $COMSAY TO,TEXTTO,REJECT=COMJ $TO COMMAND                      MKB03350
         $COMSAY TP,TEXTTP,REJECT=COMJ $TP COMMAND                      MKB03360
         $COMSAY TR,TEXTTR,REJECT=COMJ $TR COMMAND                      MKB03370
         $COMSAY T,TEXTT,REJECT=COMJ $T COMMAND                         MKB03380
COMTV    $COMSAY VS,TEXTVS,REJECT=COMJ $VS COMMAND                      MKB03390
COMTZ    $COMSAY Z,TEXTZ,REJECT=COMJ $Z COMMAND                         MKB03400
COMTEL   EQU   8                   LENGTH OF EACH COMTAB ELEMENT        MKB03410
COMTABE  EQU   *-COMTEL            LAST TABLE ENTRY                     MKB03420
         EJECT                                                          MKB03430
COMFASTR DS    0F                  FAST LOOK-UP TABLE FOR JES2B002      MKB03440
         DC    C'?',AL3(COMTBLHX)  ENTRY FOR '?' VERBS                  MKB03450
         DC    C'A',AL3(COMTA)     ENTRY FOR 'A' VERBS                  MKB03460
         DC    C'B',AL3(COMTB)     ENTRY FOR 'B' VERBS                  MKB03470
         DC    C'C',AL3(COMTC)     ENTRY FOR 'C' VERBS                  MKB03480
         DC    C'D',AL3(COMTD)     ENTRY FOR 'D' VERBS                  MKB03490
         DC    C'E',AL3(COMTE)     ENTRY FOR 'E' VERBS                  MKB03500
         DC    C'F',AL3(COMTF)     ENTRY FOR 'F' VERBS                  MKB03510
         DC    C'H',AL3(COMTH)     ENTRY FOR 'H' VERBS                  MKB03520
         DC    C'I',AL3(COMTI)     ENTRY FOR 'I' VERBS                  MKB03530
         DC    C'L',AL3(COMTL)     ENTRY FOR 'L' VERBS                  MKB03540
         DC    C'N',AL3(COMTN)     ENTRY FOR 'N' VERBS                  MKB03550
         DC    C'O',AL3(COMTOO)    ENTRY FOR 'O' VERBS                  MKB03560
         DC    C'P',AL3(COMTP)     ENTRY FOR 'P' VERBS                  MKB03570
         DC    C'R',AL3(COMTR)     ENTRY FOR 'R' VERBS                  MKB03580
         DC    C'S',AL3(COMTS)     ENTRY FOR 'S' VERBS                  MKB03590
         DC    C'T',AL3(COMTT)     ENTRY FOR 'T' VERBS                  MKB03600
         DC    C'V',AL3(COMTV)     ENTRY FOR 'V' VERBS                  MKB03610
COMFSTND DC    C'Z',AL3(COMTZ)     ENTRY FOR 'Z' VERBS                  MKB03620
         EJECT                                                          MKB03630
*                                                                       MKB03640
*        SYMBOLS TO DEFINE COMMAND TABLE ELEMENT FIELDS                 MKB03650
*                                                                       MKB03660
COMTXT   EQU   0                   POSITION OF TEXT ADDRESS             MKB03670
COMTVB   EQU   COMTEL-2            LOCATION OF VERB WITHIN ENTRY        MKB03680
COMR     EQU   CMBFLAGR            LEVEL OF RESTRICTION FOR REMOTES  R4 MKB03690
COMS     EQU   DCTREJSY            REJECT UNLESS SYSTEM AUTHORIZATION   MKB03700
COMD     EQU   DCTREJDV            REJECT UNLESS DEVICE AUTHORIZATION   MKB03710
COMJ     EQU   DCTREJJB            REJECT UNLESS JOB AUTHORIZATION      MKB03720
COMJDS   EQU   COMJ+COMD+COMS      COMBINATION                          MKB03730
         SPACE 2                                                        MKB03740
         LTORG ,                                                        MKB03750
         TITLE 'COMMAND PROCESSOR - TEXT DEFINITIONS'                   MKB03760
NOTEXT   $TEXT 'SORRY,FUNCTION NOT YET DOCUMENTED'                      MKB03770
         $TEXT 'REFER TO JES2 COMMAND MANUAL GC23-0007',STOP            MKB03780
ERRORTXT $TEXT 'COMMAND DOES NOT EXIST',STOP                            MKB03790