         MACRO                                                          PM007990
&NAME    ABEND &N,&FULL                                                 PM008000
.*                                                                      PM008010
.*       PREPARE TO ABNORMALLY TERMIATE                                 PM008020
.*                                                                      PM008030
&NAME    LA    R9,&N               SET ABEND CODE IN WORK REGISTER      PM008040
         STH   R9,$ABNDCDE+2       PRESERVE ABEND CODE IN CCB           PM008050
         AIF   ('&FULL' NE 'FULL').A01                                  PM008060
         OI    $ABNDCDE,FULLDUMP   SET FOR FULL CORE DUMP               PM008070
.A01     ANOP                                                           PM008080
         CBAL  ,DUMP               GO TO DUMP ROUTINE                   PM008090
         MEND                                                           PM008100
