         MACRO                                                          BD010100
&NAME    CB21  &DUMMY                                                   BD010110
*********************************************************************** BD010120
*        FORMAT OF MS21 CONTROL BLOCK                                 * BD010130
*********************************************************************** BD010140
         SPACE 1                                                        BD010150
*        THIS C/B IS COMMON TO ISAM & RIGAM FILES, & INTERNAL TABLES    BD010160
         SPACE 1                                                        BD010170
CB21NTRY DSECT                     DEFINITION OF DATA TO BE EXTRACTED   BD010180
CB21FLAG DS    0CL1                CONTROL BLOCK FLAG                   BD010190
CB21CB21 DS    F                   ADDRESS OF NEXT CB21                 BD010200
CB21CCNO DS    PL2                 CONTROL CARD SEQUENCE NUMBBER        BD010210
CB21SPOS DS    CL1                 POSN OF FIELD IN FILE                BD010220
CB21SLEN DS    CL1                 LGTH OF FIELD IN FILE                BD010230
CB21DPOS DS    CL1                 POSN OF FIELD IN OUTPUT RECORD       BD010240
CB21SW   DS    CL1                 SWITCH BYTE                          BD010250
CB21LGTH EQU   *-CB21NTRY          LENGTH OF BASIC DSECT                BD010260
CB21PADC DS    0CL1                PAD CHARACTER IF RELEVANT            BD010270
CB21LIT  DS    CL20                DEFAULT LITERAL VALUE IF RELEVANT    BD010280
         SPACE 5                                                        BD010290
SW21PACK EQU   1                   PACK SOURCE BEFORE MOVE              BD010300
SW21UNP  EQU   2                   UNPACK SOURCE BEFORE MOVE            BD010310
SW21LIT  EQU   4                   USE DEFAULT LITERAL IF NO MATCH      BD010320
SW21PAD  EQU   8                   PAD DERIVED FIELD IF NO MATCH        BD010330
         MEND                                                           BD010340
