         MACRO                                                          BD010360
&NAME    CB30  &DUMMY                                                   BD010370
*********************************************************************** BD010380
*        FORMAT OF MS30 CONTROL BLOCK                                 * BD010390
*********************************************************************** BD010400
         SPACE 1                                                        BD010410
CB30NTRY DSECT                                                          BD010420
CB30FLAG DS    0CL1                CONTROL BLOCK FLLAG                  BD010430
CB30CB30 DS    F                   ADDRESS OF NEXT CBXX C/B             BD010440
CB30TID  DS    CL2                 TEST ID ( LABEL )                    BD010450
CB30CCNO DS    PL2                 CONTROL CARD SEQUENCE NUMBBER        BD010460
CB30SW   DS    CL1                 SWITCH BYTE                          BD010470
CB30RNG1 DS    CL16                RANGE 1 ( START OF RANGE OR LITERAL) BD010480
CB30RNG2 DS    CL16                RANGE 2 ( END OF RANGE )             BD010490
CB30LGTH EQU   *-CB30NTRY          LENGTH OF DSECT                      BD010500
         SPACE 5                                                        BD010510
SW30PAKD EQU   1                   ON  = PACKED DECIMAL COMPARE         BD010520
*                                  OFF = CHARACTER COMPARE              BD010530
SW30EXT  EQU   2                   ON  = R1 < R2 & FLD < R1 | R2 < FLD  BD010540
*                                  OFF = R1 <= FLD <= R2                BD010550
         MEND                                                           BD010560
