         MACRO                                                          BD011090
&NAME    CB33  &DUMMY                                                   BD011100
*********************************************************************** BD011110
*        FORMAT OF MS33 CONTROL BLOCK                                 * BD011120
*********************************************************************** BD011130
         SPACE 1                                                        BD011140
CB33NTRY DSECT                                                          BD011150
CB33FLAG DS    0CL1                CONTROL BLOCK FLAG                   BD011160
CB33CB33 DS    F                   ADDRESS OF NEXT CBXX C/B             BD011170
CB33TID  DS    CL2                 TEST ID (LABEL )                     BD011180
CB33CCNO DS    PL2                 CONTROL CARD SEQUENCE NUMBBER        BD011190
CB33POS1 DS    CL1                 POSN OF 'FROM'FIELD                  BD011200
CB33LEN1 DS    CL1                 LGTH OF 'FROM'FIELD                  BD011210
CB33POS2 DS    CL1                 POSN OF 'TO' FIELD                   BD011220
CB33LEN2 DS    CL1                 LGTH OF 'TO' FIELD                   BD011230
CB33TYPE DS    CL1                 TEST TYPE ( IF COMPARISON )          BD011240
CB33SW   DS    CL1                 SWITCH BYTE                          BD011250
CB33LGTH EQU   *-CB33NTRY          LENGTH OF BASIC DSECT                BD011260
CB33LIT  DS    CL1                 VARIABLE LENGTH OPTIONAL LITERAL     BD011270
         SPACE 5                                                        BD011280
SW33MOVE EQU   1                   OFF - FIELDS ARE TO BE COMPARED      BD011290
*                                  ON  - FIELDS ARE TO BE MOVED         BD011300
SW33LIT  EQU   2                   'FROM' FIELD IS LITERAL CONSTANAT    BD011310
SW33MP   EQU   4                   IN UNPACKED, OUT PACKED              BD011320
SW33MU   EQU   8                   IN PACKED, OUT UNPACKED              BD011330
SW33CNUM EQU   16                  NUMERIC COMPARE: FLDS UNPACKED       BD011340
SW33CPD  EQU   32                  NUMERIC COMPARE: FLDS PACKED         BD011350
         MEND                                                           BD011360
