         MACRO                                                          BM010340
&NAME    CCNO  &FLD,&CB                                                 BM010350
.*                                                                      BM010360
.*       ADD CONTROL CARD REC NO FROM CURRENT C/B TO ERR MESSAGE        BM010370
.*                                                                      BM010380
         LCLC  &CBLK                                                    BM010390
&NAME    MVC   $WRKEDIT(4),EDITPATN MOVE EDIT PATTERN TO WORK AREA      BM010400
&CBLK    SETC  '&CB'                                                    BM010410
         AIF   ('&CB' NE '').A01                                        BM010420
&CBLK    SETC  'CB20'                                                   BM010430
.A01     ANOP                                                           BM010440
         ED    $WRKEDIT(4),&CBLK.CCNO EDIT CONTROL CARD SEQUENCE NUMBER BM010450
         MVC   &FLD.(4),$WRKEDIT ^ MOVE EDIT ED NUMBER TO ERROR MESSAGE BM010460
         MEND                                                           BM010470
