         MACRO                                                          PD007360
&NAME    FDB  &DUMMY                                                    PD007370
*********************************************************************** PD007380
*        FDB - FIELD DEFINITION BLOCK                                 * PD007390
*********************************************************************** PD007400
         SPACE 1                                                        PD007410
*        DEFINE A SINGLE FIELD FROM A GR04/07 CAD                       PD007420
         SPACE 1                                                        PD007430
FDBNTRY  DSECT                                                          PD007440
FDBID    DS    0CL1                CONTROL BLOCK IDENTIFIER             PD007450
FDBFDB   DS    F                   ADDRESS OF NEXT FDB                  PD007460
FDBSCE   DS    F                   ADDRESS OF 1ST ASSOC SCE IF ANY      PD007470
FDBFSA   DS    F                   ADDRESS OF ASSOCIATED STORAGE AREA   PD007480
FDBLABL  DS    CL2                 FIELD LABEL                          PD007490
FDBFLDP  DS    H                   DISP OF FIELD IN RECORD              PD007500
FDBFLDL  DS    CL1                 LGTH OF FIELD                        PD007510
FDBFLDT  DS    CL1                 TYPE OF FIELD                        PD007520
FDBNDEC  DS    BL1                 NO OF ECIMAL PLACES IN INPUT FIELD   PD007530
FDBMKEYN DS    BL1                 KEY LEVEL UP TO WHICH VALUE IS MOVED PD007540
*                                   AND NOT ACCUMULATED                 PD007550
FDBSW    DS    CL1                 SWITCH BYTE                          PD007560
FDBLGTH  EQU   *-FDBNTRY           LENGTH OF DSECT                      PD007570
         SPACE 5                                                        PD007580
MFDBINP  EQU   1                   FIELD IS EXTRACTED FROM RECORD       PD007590
MFDBSCAL EQU   2                   DEFINED FIELD IS A SCALAR            PD007600
MFDBCALC EQU   4                   FIELD VALUE COMES FROM CALCULATION   PD007610
MFDBMOVE EQU   8                   VALUE TO BE MOVED, ^ACCUMULATED, UP  PD007620
MFDBREF  EQU   16                  FDB HAS BEEN REFERENCED              PD007630
MFDBNZD  EQU   32                  DO NOT CLEAR DETAIL VALUE ON READ    PD007640
         SPACE 5                                                        PD007650
*        THE VALUE OF 'FDBFLDT' WILL BE ONE OF THE FOLLOWING:-          PD007660
FDBTCHAR EQU   CHAR                CHARCATER FIELD                      PD007670
FDBTNUM  EQU   NUM                 DISPLAY NUMERIC                      PD007680
FDBTPD   EQU   PD                  PACKED DECIMAL                       PD007690
FDBTHEX  EQU   HEX                 HEXADECIMAL STRING                   PD007700
FDBTBIN  EQU   BIN                 BINARY VALUE                         PD007710
         SPACE 5                                                        PD007720
*        FCB'S ARE CREATED TO DEFINE KEY AND NAME FIELDS.  THE 1ST BYTE PD007730
*         OF THE NAME FIELD 'FDBFID' IS X'00' FOR A NAME, AND X'FF' FOR PD007740
*         A KEY, WHILE THE 2ND BYTE IS THE KEY NUMBER.                  PD007750
         MEND                                                           PD007760
