         MACRO                                                          PC003050
&NAME    GR10  &DUMMY                                                   PC003060
*********************************************************************** PC003070
*        FORMAT OF GR10/11/12 CONTROL CARDS                           * PC003080
*********************************************************************** PC003090
         SPACE 1                                                        PC003100
*        DEFINE PRINT FIELD CONTENTS                                    PC003110
         SPACE 1                                                        PC003120
GR10CARD DSECT                                                          PC003130
GR10ID   DS    CL4                 CARD ID ('GR10'/GR11'/'GR12')        PC003140
GR10KEYN DS    CL1                 KEY LEVEL TO WHICH THIS APPLIES      PC003150
GR10STRT DS    CL3                 START POSN IN PRINT LINE             PC003160
GR10END  DS    CL3                 END POSN IN PRINT LINE               PC003170
GR10FLD  DS    CL5                 FIELD IDENTIFIER                     PC003180
*                                   GR04/GR07 ID                        PC003190
*                                   KEYN     ( N = 1 - 8 )              PC003200
*                                   CNTN     ( N = 1 - 8 )              PC003210
*                                   NAMEN    ( N = 1 - 8 )              PC003220
*                                   'DELET' (GR12 ONLY: SUPPRESS GRAND) PC003230
*                                   NAME9 - DETAIL LEVEL NAME           PC003240
*                                   'LIT' - LITERAL VALUE SUPPLIED      PC003250
*                                   LINE+ - SKIP TO NEW LINE            PC003260
*                                   'GR11' - GR12 ONLY: TAKE GR11 VALUS PC003270
GR10FMAT DS    CL1                 OUTPUT FORMAT                        PC003280
*                                   'X' - ALPHAMERIC, LEFT-ALIGNED      PC003290
*                                   '9' - NUMERIC, RIGTH-ALIGNED        PC003300
*                                   'Z' - NUMERIC, SUPPRESS LEADING 0'S PC003310
*                                   ',' - EDITED NUMERIC                PC003320
*                                   '$' - EDITED, WITH FLOATING $ SIGN  PC003330
*                                   'H' - HEXPANDED                     PC003340
*                                   'B' - PRINT AS BIT STRING           PC003350
*                                   'P' - PACKED DECIMAL                PC003360
*                                   'D' - DISPLAY NUMERIC & SIGN OVERPU PC003370
*                                   'F' - FLOATING POINT                PC003380
*                                   '1' - BINARY                        PC003390
*                                   '1'/'2'/'3'/'E' - WITH LINE+ ONLY   PC003400
GR10NDEC DS    CL1                 NO OF DECIMAL PLACES TO BE PRINTED   PC003410
GR10PMOD DS    CL2                 PRINT MODIFIER                       PC003420
*                                   'ZZ' - PRINT ZERO VALUES            PC003430
*                                   'BL' OMIT IF SAME AS PRECEDING LINE PC003440
GR10LIT  DS    0CL20               LITERAL VALUE ('LIT' ONLY)           PC003450
GR10DETL DS    CL4                 'DETL' - ALWAYS USE CURRENT DETL VAL PC003460
         DS    CL16                UNUSED ( EXCEPT FOR 'LIT' SPEC'N )   PC003470
GR10IOLB DS    CL2                 LABEL OF ASSOCIATED GR00 CARD        PC003480
*                                  IF BLANK, THEN 'PRINT' IS DEFAULT    PC003490
GR10TST  DS    0CL19               OPTIONAL TEST TO MAKE FLD CONDITIANL PC003500
GR10TPOS DS    CL3                 POSN OF FIE LD TO BE TESTED          PC003510
GR10TLEN DS    0CL2                LGTH OF FIE LD TO BE TESTED          PC003520
GR10TID  DS    CL2                  OR ID OF GR04/07 FLD TO BE TESTED   PC003530
GR10TTYP DS    CL1                 FIELD TYPE                           PC003540
*                                   ' '/N/P/C/X/B                       PC003550
GR10TTST DS    CL2                 TEST TYPE (GE/GT/LE/LT/EQ/NE/ON/OF)  PC003560
GR10TLIT DS    CL11                LITERAL COMPARAND                    PC003570
GR10TST2 DS    CL19                SECOND SELECTION CRITERION BUCKET    PC003580
GR10LGTH EQU   *-GR10CARD          LENGT OF DSECT                       PC003590
         MEND                                                           PC003600
