         MACRO                                                          PM000020
&NAME    IOM   &SUBTYPE,&PARM1,&PARM2,&PARM3,&PARM4,                   *PM000030
               &TYPE=,&LOOP=,&RTN=,&MSGID=,&AUTOPEN=                    PM000040
.*                                                                      PM000050
.*       EQUATES,MAXDD                                                  PM000060
.*                                                                      PM000070
.*       DCBSW,DDNAME,DCBNAME,INPUT ,MANDAT                             PM000080
.*       DCBSW,DDNAME,DCBNAME,OUTPUT,MANDAT                             PM000090
.*       DCBSW,DDNAME,DCBNAME,PRINT,MANDAT                              PM000100
.*                                                                      PM000110
.*       PUT,DCBSW,(REG),PRINT,LNECNT,RTN=HEADING                       PM000120
.*                                                                      PM000130
.*       PUTM,DCBSW,(REG)                                               PM000140
.*                                                                      PM000150
.*       GET,DCBSW,(REG)                                                PM000160
.*                                                                      PM000170
.*       GETM,DCBSW,(REG)                                               PM000180
.*                                                                      PM000190
.*       OPEN,TYPE=DEF                                                  PM000200
.*       CLOSE,TYPE=DEF                                                 PM000210
.*       TIOTSCAN,TYPE=DEF                                              PM000220
.*                                                                      PM000230
.*       OPEN,DCBSW,NOREOPEN,LOOP=1,RTN=OPEN                            PM000240
.*       OPEN,DCBSW,NOREOPEN,LOOP=N,RTN=NAME                            PM000250
.*                                                                      PM000260
.*       CLOSE,DCBSW,LOOP=1,RTN=CLOSE                                   PM000270
.*       CLOSE,DCBSW,LOOP=N,RTN=NAME                                    PM000280
.*                                                                      PM000290
.*       TIOTSCAN,DCBSW,LOOP=1,RTN=TIOTSCAN                             PM000300
.*       TIOTSCAN,DCBSW,LOOP=N,RTN=NAME                                 PM000310
.*                                                                      PM000320
.*       SUMMARY,DCBSW,(REG),PRESENT,RTN=NAME,LOOP=N                    PM000330
.*                                                                      PM000340
.*       AUDIT,DCBSW,(REG),ENDJOB,RTN=NAME,LOOP=N                       PM000350
.*                                                                      PM000360
.*       EOF,DCBSW,BUFF-ADDR                                            PM000370
.*                                                                      PM000380
.*       BLKSZRTN,TYPE=DEF                                              PM000390
.*                                                                      PM000400
.*       IOERROR,(REG),PRINTRTN,EOJRTN,TYPE=DEF                         PM000410
.*                                                                      PM000420
.*       ISRANDOM,DCBSW-ADDR,KEY-ADDR                                   PM000430
.*                                                                      PM000440
         GBLC  &OPEN                                                    PM000450
         LCLA  &MAXDD                                                   PM000460
         LCLC  &BIT0,&BIT1,&DCB                                         PM000470
         LCLC  &BIT8                                                    PM000480
         LCLC  &B,&D                                                    PM000490
         LCLA  &BA,&DA                                                  PM000500
         LCLC  &LABEL,&RTNE,&REG                                        PM000510
         LCLC  &EOJRTNE                                                 PM000520
         LCLC  &LNECNT                                                  PM000530
.*                                                                      PM000540
.*                                                                      PM000550
.*       DETERMINE IF AUTOPEN WAS SPECIFIED                             PM000560
.*                                                                      PM000570
         AIF   ('&AUTOPEN' EQ '').A00                                   PM000580
&OPEN    SETC  'Y'                                                      PM000590
         AIF   ('&AUTOPEN' EQ 'YES').A00                                PM000600
&OPEN    SETC  'N'                                                      PM000610
         AIF   ('&AUTOPEN' EQ 'NO').A00                                 PM000620
         MNOTE 1,'UNKNOWN ''AUTOPEN'' SPECIFICATION - TREATED AS NO'    PM000630
.A00     ANOP                                                           PM000640
         AIF   ('&SUBTYPE' NE 'EQUATES').B00                            PM000650
IOSWMAND EQU   128 0               DDNAME MANDATORY                     PM000660
IOSWINPT EQU   64 0                INPUT DATA SET (DEFAULT)             PM000670
IOSWOUTP EQU   191 0               OUTPUT DATA SET            (NI ONLY) PM000680
IOSWPRES EQU   32 0                DDNAME PRESENT                       PM000690
IOSWOPEN EQU   16 0                DCB NOW OPEN                         PM000700
IOSWCLOS EQU   239 0               CLOSE DCB                  (NI ONLY) PM000710
IOSWEOF  EQU   8 0                 EOF DETECTED                         PM000720
IOSWIOER EQU   4 0                 I/O ERROR DETECTED                   PM000730
IOSWOPNH EQU   2 0                 DCB HAS BEEN OPENED                  PM000740
IOSWEOP  EQU   1 0                 PRINT DATA SET WITH EOP ROUTINE      PM000750
IOPSSW   EQU   0                   DISPLACEMENT OF SWITCH BYTE          PM000760
IOPSEOD  EQU   1                   DISPLACEMENT OF EOD INDICATOR        PM000770
IOPSISI  EQU   2                   DISPLACEMENT OF IS STATUS FLAG       PM000780
IOPSDCB  EQU   4                   DISPLACEMENT OF DCB ADDRESS          PM000790
IOPSDDN  EQU   8                   DISPLACEMENT OF DDNAME               PM000800
IOPSRECA EQU   16                  DISPLACEMENT OF RECORD ADDRESS       PM000810
IOPSRCNT EQU   20                  DISPLACEMENT OF RECORD COUNT         PM000820
IOPSR4SA EQU   24                  DISPLACEMENT OF R4 SAVE AREA         PM000830
IOPSLGTH EQU   28                  LENGTH OF DCBSW C/B                  PM000840
         AIF   ('&PARM1' EQ '').A02                                     PM000850
         AIF   (T'&PARM1 NE 'N').A01                                    PM000860
&MAXDD   SETA  &PARM1                                                   PM000870
IOMMAXDD EQU   &MAXDD 0            MAX NO. OF DD STATEMENTS             PM000880
         AGO   .A02                                                     PM000890
.A01     MNOTE 1,'MAX NO OF DD STATEMENTS IS NON-NUMERIC'               PM000900
.A02     AIF   ('&PARM2' NE '').A03                                     PM000910
         AIF   ('&PARM3' NE '').A03                                     PM000920
         AIF   ('&PARM4' NE '').A03                                     PM000930
         AIF   ('&TYPE' NE '').A03                                      PM000940
         AIF   ('&LOOP' NE '').A03                                      PM000950
         AIF   ('&RTN' NE '').A03                                       PM000960
         AGO   .A04                                                     PM000970
.A03     MNOTE *,'THE SUPERFLUOUS OPERANDS CODED WERE IGNORED'          PM000980
.A04     MEXIT                                                          PM000990
.B00     AIF   ('&SUBTYPE' NE 'DCBSW').C00                              PM001000
         AIF   ('&PARM1' NE '').B01                                     PM001010
         MNOTE 16,'NO DDNAME SUPPLIED FOR DCBSW OPERATION'              PM001020
         MEXIT                                                          PM001030
.B01     AIF   ('&PARM2' NE '').B02                                     PM001040
&DCB     SETC  '&PARM1'                                                 PM001050
         MNOTE *,'NO DCB NAME SUPPLIED - DDNAME ASSUMED'                PM001060
         AGO   .B03                                                     PM001070
.B02     ANOP                                                           PM001080
&DCB     SETC  '&PARM2'                                                 PM001090
.B03     ANOP                                                           PM001100
&BIT0    SETC  '0'                                                      PM001110
&BIT1    SETC  '1'                                                      PM001120
&BIT8    SETC  '0'                                                      PM001130
         AIF   ('&PARM3' EQ '').B04                                     PM001140
         AIF   ('&PARM3' EQ 'INPUT').B05                                PM001150
         AIF   ('&PARM3' EQ 'PRINT').B20                                PM001160
         AIF   ('&PARM3' NE 'OUTPUT').B10                               PM001170
&BIT1    SETC  '0'                                                      PM001180
         AGO   .B05                                                     PM001190
.B20     ANOP                                                           PM001200
&BIT8    SETC  '1'                                                      PM001210
&BIT1    SETC  '0'                                                      PM001220
         AGO   .B05                                                     PM001230
.B04     MNOTE *,'I/O TYPE NOT SPECIFIED - INPUT ASSUMED'               PM001240
.B05     AIF   ('&PARM4' EQ '').B06                                     PM001250
         AIF   ('&PARM4' NE 'MANDAT').B10                               PM001260
&BIT0    SETC  '1'                                                      PM001270
         AGO   .B07                                                     PM001280
.B06     MNOTE *,'DD STATEMENT IS OPTIONAL'                             PM001290
.B07     ANOP                                                           PM001300
&B       SETC  '00000'                                                  PM001310
         CNOP  0,4 0               ENSURE CORRECT ALIGNMENT             PM001320
&B       SETC  '&BIT0&BIT1.00000&BIT8'                                  PM001330
&NAME    DC    B'&B',C'X  ',V(&DCB),CL8'&PARM1',A(0),PL4'0',A(0)        PM001340
         AIF   ('&TYPE' NE '').A03                                      PM001350
         AIF   ('&LOOP' NE '').A03                                      PM001360
         AIF   ('&RTN' NE '').A03                                       PM001370
         MEXIT                                                          PM001380
.B10     MNOTE 16,'UNKNOWN POSITIONAL PARAMETER'                        PM001390
         MEXIT                                                          PM001400
.*                                                                      PM001410
.*                                                                      PM001420
.*       IOM   PUT,DCBSW (,(REG) (,PRINT) (,LNECNT) (,RTN=HEADING)      PM001430
.*                                                                      PM001440
.*       IOM   GET,DCBSW (,(REG))                                       PM001450
.*                                                                      PM001460
.C00     AIF   ('&SUBTYPE' EQ 'PUT').C01                                PM001470
         AIF   ('&SUBTYPE' NE 'GET').D00                                PM001480
.C01     AIF   ('&PARM1' NE '').C021                                    PM001490
.C011    MNOTE 16,'MANDATORY DCBSW ADDRESS NOT SUPPLIED'                PM001500
         MEXIT                                                          PM001510
.C021    ANOP                                                           PM001520
&NAME    TM    &PARM1.+IOPSSW,IOSWPRES 0IS DD STATEMENT PRESENT         PM001530
         BZ    IOMC&SYSNDX 0       BYPASS I/O IF NO DD STATEMENT        PM001540
         AIF   ('&OPEN' EQ 'N').C100                                    PM001550
         TM    &PARM1.+IOPSSW,IOSWOPEN 0 TEST IF DCB OPEN               PM001560
         BO    IOME&SYSNDX 0       BRANCH IF OPEN                       PM001570
         ST    R4,&PARM1.+IOPSR4SA 0 PRESERVE R4 RETUR  ADDRESS         PM001580
         LA    R2,&PARM1           POINT R2 AT DCBSW                    PM001590
         CBAL  R4,OPEN,LOOP=NO     OPEN DATA SET                        PM001600
         L     R4,&PARM1.+IOPSR4SA 0 RESTORE SAVED R4 VALUE             PM001610
IOME&SYSNDX EQU * 0                BYPASS OPEN PROCESSING               PM001620
.C100    ANOP                                                           PM001630
         AIF   ('&SUBTYPE' NE 'GET').C023                               PM001640
         TM    &PARM1.+IOPSSW,IOSWEOF 0TEST FOR END OF FILE ALREADY     PM001650
         BO    IOMC&SYSNDX 0       BR IF EOF ALREADY REACHED            PM001660
.C023    ANOP                                                           PM001670
         AIF   ('&SUBTYPE' NE 'PUTM').C024                              PM001680
         LR    R0,&REG             POINT R0 AT DATA                     PM001690
         L     R1,&PARM1.+IOPSDCB  POINT R1 AT DCB ADDRESS              PM001700
         L     R15,48(0,R1)        LOAD PUT ROUTINE ADDRESS             PM001710
         BALR  R14,R15             LINK TO PUT ROUTINE                  PM001720
         AGO   .C05                                                     PM001730
.C024    ANOP                                                           PM001740
         AIF   ('&SUBTYPE' NE 'GETM').C025                              PM001750
         L     R1,&PARM1.+IOPSDCB  POINT R1 AT DCB ADDRESS              PM001760
         LR    R0,&REG             POINT R0 AT DESTINATION              PM001770
         L     R15,48(0,R1)        LOAD GET ROUTINE ADDRESS             PM001780
         BALR  R14,R15             LINK TO GET ROUTINE                  PM001790
         AGO   .C05                                                     PM001800
.C025    ANOP                                                           PM001810
         AIF   ('&PARM3' NE 'PRINT' OR '&RTN' NE'').C022                PM001820
IOMD&SYSNDX EQU * 0                LOOP BACK FOR EOP POOCESSING         PM001830
.C022    ANOP                                                           PM001840
         L     R1,&PARM1.+IOPSDCB  POINT R1 AT DCB ADDRESS              PM001850
         L     R15,48(,R1) 0       GET I/O RTN ADDRESS                  PM001860
         BALR  R14,R15             LINK TO I/O ROUTINE                  PM001870
         ST    R1,&PARM1.+IOPSRECA STORE BUFFER ADDRESS                 PM001880
         AIF   ('&PARM2' EQ '').C05                                     PM001890
         AIF   ('&PARM2'(1,1) EQ '(').C04                               PM001900
.C031    MNOTE 16,'INVALID REGISTER SPECIFICATION FOR &SUBTYPE'         PM001910
         MEXIT                                                          PM001920
.C04     LR    &PARM2(1),R1 0      SET BUFFER ADDRESS IN WORK REGISTER  PM001930
.C05     AP    &PARM1.+IOPSRCNT(4),=P'1' 0 INCREMENT RECORD COUNT       PM001940
         AIF   ('&PARM3' NE 'PRINT').C9                                 PM001950
&LNECNT  SETC  '&PARM4'                                                 PM001960
         AIF   ('&PARM4' NE '').C6                                      PM001970
         MNOTE *,'NO LINE COUNT SUPPLIED - 60 ASSUMED'                  PM001980
         CP    &PARM1.+IOPSRCNT(4),=P'60' TEST FOR END OF PAGE          PM001990
         AGO   .C63                                                     PM002000
.C6      ANOP                                                           PM002010
         AIF   (T'&PARM4 EQ 'N').C62                                    PM002020
         CP    &PARM1.+IOPSRCNT(4),&PARM4 TEST FOR END OF PAGE          PM002030
         AGO   .C63                                                     PM002040
.C62     CP    &PARM1.+IOPSRCNT(4),=P'&LNECNT' 0TEST FOR END OF PAGE    PM002050
.C63     BL    IOMC&SYSNDX 0       BRANCH IF NOT                        PM002060
         ZAP   &PARM1.+IOPSRCNT(4),=P'0' 0 ZEROISE LINE COUNT           PM002070
         AIF   ('&RTN' NE '').C7                                        PM002080
         MNOTE *,'NO EOP ROUTINE SUPPLIED - PAGE SKIP FORCED'           PM002090
         MVI   0(R1),PAGESKIP 0    ESTABLISH PAGE SKIP                  PM002100
         B     IOMD&SYSNDX 0       SKIP TO NEW PAGE                     PM002110
IOMC&SYSNDX EQU * 0                END OF ROUTINE                       PM002120
.C8      AIF   ('&TYPE' NE '').A03                                      PM002130
         AIF   ('&LOOP' NE '').A03                                      PM002140
         MEXIT                                                          PM002150
.C7      ST    R4,IOMD&SYSNDX 0    PRESERVE RETURN ADDRESS              PM002160
         CBAL  R4,&RTN,LOOP=NO     PERFORM HEADING ROUTINE              PM002170
         L     R4,IOMD&SYSNDX 0    RESTORE RETURN ADDRESS               PM002180
         B     IOMC&SYSNDX 0       BRANCH OVER SAVE AREA                PM002190
IOMD&SYSNDX DS F 0                 SAVE AREA FOR R4                     PM002200
IOMC&SYSNDX EQU * 0                END OF ROUTINE                       PM002210
         AGO   .C8                                                      PM002220
.C9      ANOP                                                           PM002230
IOMC&SYSNDX EQU * 0                 END OF ROUTINE                      PM002240
         AIF   ('&PARM3' NE '').A03                                     PM002250
         AIF   ('&PARM4' NE '').A03                                     PM002260
         AIF   ('&TYPE' NE '').A03                                      PM002270
         AIF   ('&LOOP' NE '').A03                                      PM002280
         AIF   ('&RTN' NE '').A03                                       PM002290
         MEXIT                                                          PM002300
.D00     AIF   ('&SUBTYPE' NE 'OPEN').E00                               PM002310
         AIF   ('&TYPE' EQ '').D04                                      PM002320
         AIF   ('&TYPE' EQ 'DEF').D02                                   PM002330
.D01     MNOTE 16,'UNKNOWN TYPE OPERAND'                                PM002340
         MEXIT                                                          PM002350
.*                                                                      PM002360
.*                                                                      PM002370
.*       IOM   OPEN,DCBSW-ADDR, (,NOREOPEN) (,LOOP=N) (,RTN=AAA)        PM002380
.*                                                                      PM002390
.D02     ANOP                                                           PM002400
&LABEL   SETC  'OPEN'                                                   PM002410
         AIF   ('&NAME' EQ '').D03                                      PM002420
&LABEL   SETC  '&NAME'                                                  PM002430
.D03     ANOP                                                           PM002440
&LABEL   DS    0H 0                ENTRY TO OPEN SUBROUTINE             PM002450
         L     R1,IOPSDCB(,R2) 0   GET DCB ADDRESS                      PM002460
         TM    IOPSSW(R2),IOSWPRES TEST IF DD STATEMENT PRESENT         PM002470
         BNO   0(R4) 0             RETURN IF NOT                        PM002480
         TM    IOPSSW(R2),IOSWOPEN 0 TEST IF DATA SET OPEN              PM002490
         BO    0(R4) 0             RETURN IF DATA STE OPEN              PM002500
         CNOP  0,4 0               ENSURE CORRECT ALIGNMENT             PM002510
         ST    R1,*+8 0            STORE DCB ADDRESS                    PM002520
         BAL   R1,*+8              LOAD REG 1 WITH LIST ADDRESS         PM002530
         DC    A(0) 0              DCB ADDRESS                          PM002540
         TM    IOPSSW(R2),IOSWINPT 0 TEST IF INPUT                      PM002550
         BO    IOMD&SYSNDX 0       BRANCH IF YES                        PM002560
         MVI   0(R1),143 0         SET OPTION BYTE FOR INPUT            PM002570
         B     *+8 0               GO TO SVC                            PM002580
IOMD&SYSNDX MVI 0(R1),128          SET OPTION BYTE                      PM002590
         SVC   19 0                ISSUE OPEN SVC                       PM002600
         OI IOPSSW(R2),IOSWOPEN+IOSWOPNH INDICATE DATA SET OPEN         PM002610
         MVI   IOPSEOD(R2),C'X'    RESET EOD INDICATOR IF NECESSARY     PM002620
         BR    R4 0                RETURN TO MAIN-LINE                  PM002630
.D031    AIF   ('&PARM1' NE '').A03                                     PM002640
         AIF   ('&PARM2' NE '').A03                                     PM002650
         AIF   ('&PARM3' NE '').A03                                     PM002660
         AIF   ('&PARM4' NE '').A03                                     PM002670
         AIF   ('&LOOP' NE '').A03                                      PM002680
         AIF   ('&RTN' NE '').A03                                       PM002690
         MEXIT                                                          PM002700
.D04     AIF   ('&PARM1' EQ '').C011                                    PM002710
         AIF   ('&LOOP' EQ '').D05                                      PM002720
&NAME    LA    R10,&LOOP 0         ESTABLISH LOOP                       PM002730
.D05     ANOP                                                           PM002740
&LABEL   SETC  '&NAME'                                                  PM002750
         AIF   ('&LOOP' EQ '').D06                                      PM002760
&LABEL   SETC  ' '                                                      PM002770
.D06     ANOP                                                           PM002780
&LABEL   LA    R2,&PARM1 0         POINT AT DCBSW                       PM002790
         AIF   ('&RTN' EQ '').D07                                       PM002800
&RTNE    SETC  '&RTN'                                                   PM002810
         AGO   .D09                                                     PM002820
.D07     AIF   ('&SUBTYPE' EQ 'CLOSE').D08                              PM002830
&RTNE    SETC  'OPEN'                                                   PM002840
         AIF   ('&SUBTYPE' EQ 'OPEN').D09                               PM002850
&RTNE    SETC  'TIOTSCAN'                                               PM002860
         AGO   .D09                                                     PM002870
.D08     ANOP                                                           PM002880
&RTNE    SETC  'CLOSE'                                                  PM002890
.D09     ANOP                                                           PM002900
         AIF   ('&PARM2' NE 'NOREOPEN').D081                            PM002910
         TM    IOPSSW(R2),IOSWOPNH TEST IF OPENED ALREADY               PM002920
         BO    IOME&SYSNDX         BR IF ALREADY OPENED ONCE            PM002930
.D081    ANOP                                                           PM002940
IOMD&SYSNDX CBAL R4,&RTNE 0        PERFORM SUB-ROUTINE                  PM002950
IOME&SYSNDX    EQU *               CONTINUE PROCESSING                  PM002960
         AIF   ('&LOOP' EQ '').D10                                      PM002970
         LA    R2,IOPSLGTH(,R2) 0  INCREMENT TO NEXT DCBSW              PM002980
         BCT   R10,IOMD&SYSNDX 0   LOOP BACK TO PROCESS NEXT            PM002990
.D10     AIF   ('&PARM2' NE '').A03                                     PM003000
         AIF   ('&PARM3' NE '').A03                                     PM003010
         AIF   ('&PARM4' NE '').A03                                     PM003020
         MEXIT                                                          PM003030
.E00     AIF   ('&SUBTYPE' NE 'CLOSE').F00                              PM003040
         AIF   ('&TYPE' EQ 'DEF').E01                                   PM003050
         AIF   ('&TYPE' EQ '').D04                                      PM003060
         AGO   .D01                                                     PM003070
.E01     ANOP                                                           PM003080
         AIF   ('&SUBTYPE' EQ 'OPEN').D09                               PM003090
&RTNE    SETC  'TIOTSCAN'                                               PM003100
&LABEL   SETC  'CLOSE'                                                  PM003110
         AIF   ('&NAME' EQ '').E02                                      PM003120
&LABEL   SETC  '&NAME'                                                  PM003130
.E02     ANOP                                                           PM003140
&LABEL   DS    0H 0                ENTRY TO CLOSE SUBROUTINE            PM003150
         TM    IOPSSW(R2),IOSWOPEN TEST IF DATA SET OPEN                PM003160
         BZ    0(R4) 0             RETURN IF NOT                        PM003170
         L     R1,IOPSDCB(R2) 0    GET DCB ADDRESS                      PM003180
         CNOP  0,4 0               ENSURE CORRECT ALIGNMENT             PM003190
         ST    R1,*+8 0            STORE DCB ADDRESS                    PM003200
         BAL   R1,*+8              POINT R1 AT PARM LIST                PM003210
         DC    A(0) 0              DCB ADDRESS                          PM003220
         MVI   0(R1),128 0         SET OPTION BYTE                      PM003230
         SVC   20 0                ISSUE CLOSE SVC                      PM003240
         L     R1,IOPSDCB(R2)      GET DCB ADDRESS                      PM003250
       FREEPOOL (R1)               FREE ACQUIRED BUFFER POOL            PM003260
         NI    IOPSSW(R2),IOSWCLOS INDICATE CLOSED                      PM003270
         BR    R4 0                RETURN TO MAIN-LINE                  PM003280
         AIF   ('&PARM1' NE '').A03                                     PM003290
         AIF   ('&PARM2' NE '').A03                                     PM003300
         AIF   ('&PARM3' NE '').A03                                     PM003310
         AIF   ('&PARM4' NE '').A03                                     PM003320
         AIF   ('&LOOP' NE '').A03                                      PM003330
         AIF   ('&RTN' NE '').A03                                       PM003340
         MEXIT                                                          PM003350
.*                                                                      PM003360
.*                                                                      PM003370
.*       IOM   EOF,DCBSW-NAME (,DUMMY BUFFER ADDRESS)                   PM003380
.*                                                                      PM003390
.F00     AIF   ('&SUBTYPE' NE 'EOF').G00                                PM003400
         AIF   ('&PARM1' EQ '').C011                                    PM003410
&NAME    OI    &PARM1.+IOPSSW,IOSWEOF INDICATE EOF                      PM003420
         MVI   &PARM1.+IOPSEOD,C'Y' SET CHARACTER FOR EOF INDICATION    PM003430
         AIF   ('&PARM2' EQ '').F01                                     PM003440
         L     R1,&PARM2           POINT R1 AT DUMMY BUFFER             PM003450
         ST    R1,&PARM1.+IOPSRECA 0PRESERVE DUMMY BUFFER ADDRESS       PM003460
         AGO   .F02                                                     PM003470
.F01     XC    &PARM1.+IOPSRECA(4),&PARM1.+IOPSRECA NULLIFY RECORD ADD  PM003480
.F02     ANOP                                                           PM003490
         AGO   .A02                                                     PM003500
.G00     AIF   ('&SUBTYPE' NE 'TIOTSCAN').H00                           PM003510
         AIF   ('&TYPE' EQ 'DEF').G01                                   PM003520
         AIF   ('&TYPE' NE '').D01                                      PM003530
         AGO   .D04                                                     PM003540
.G01     ANOP                                                           PM003550
&LABEL   SETC  'TIOTSCAN'                                               PM003560
         AIF   ('&NAME' EQ '').G02                                      PM003570
&LABEL   SETC  '&NAME'                                                  PM003580
.G02     ANOP                                                           PM003590
&LABEL   DS    0H 0                ENTRY TO TIOT SCAN ROUTINE           PM003600
*                                                                       PM003610
*        EXTRACT TIOT ADDRESS EVERY TIME LEST TIOT ALTERED BY           PM003620
*         DYNAMICALLY ALLOCATED DD STATEMENTS.                          PM003630
*                                                                       PM003640
         EXTRACT IOMATIOT,'S',FIELDS=TIOT  OBTAIN ADDRESS OF TOOT       PM003650
         B     IOMG&SYSNDX         BRANCH AROUND SAVE AREAS             PM003660
IOMATIOT DS    F 0                 ADDRESS OF TIOT                      PM003670
IOMTIOT1 DS    F 0                 SAVE AREA FOR R3                     PM003680
IOMTIOT2 DS    F 0                 SAVE AREA FOR R10                    PM003690
IOMG&SYSNDX EQU * 0                SUBSEQUENT PROCESSING                PM003700
         ST    R3,IOMTIOT1 0       PRESERVE CONTENTS                    PM003710