         MACRO                                                          PD008270
&NAME    ISD  &DUMMY                                                    PD008280
*********************************************************************** PD008290
*        ISD - IS DATA FIELD DEFINITION                               * PD008300
*********************************************************************** PD008310
         SPACE 1                                                        PD008320
*        DESCRIBE SINGLE FIELF TO BE RETRIEVED FROM ISAM RECORD         PD008330
         SPACE 1                                                        PD008340
ISDNTRY  DSECT                     DEFINE DATA TO BE EXTRACTED          PD008350
ISDID    DS    0CL1                CONTROL BLOCK IDENTIFIER             PD008360
ISDISD   DS    F                   ADDRESS OF NEXT ISD                  PD008370
ISDSPOS  DS    H                   POSN OF FIELD IN IS RECORD           PD008380
ISDSLEN  DS    CL1                 LGTH OF FIELD IN IS RECORD           PD008390
ISDSW    DS    CL1                 SWITCH BYTE                          PD008400
ISDDPOS  DS    H                   POSN OF FIELD IN DESTINATION         PD008410
ISDDLEN  DS    CL1                 LGTH OF FIELD IN DESTINATION         PD008420
ISDLGTH  EQU   *-ISDNTRY           LENGTH OF BASIC DSECT                PD008430
ISDPADC  DS    0CL1                PAD CHARACTER IF RELEVANT            PD008440
ISDLIT   DS    CL20                DEFAULT LITERAL IF RELEVANT          PD008450
         SPACE 5                                                        PD008460
MISDPACK EQU   1                   PACK SOURCE BEFORE MOVE              PD008470
MISDUNP  EQU   2                   UNPACK SOURCE BEFORE MOVE            PD008480
MISDLIT  EQU   4                   USE DEFUALT LITERAL IF NO MATCH      PD008490
MISDPAD  EQU   8                   PAD DERIVED FIELD IF NO MATCH        PD008500
         MEND                                                           PD008510
