         MACRO                                                          PM013180
&NAME    LTRR  &R1,&R2                                                  PM013190
         AIF   ('&R2' NE '').A01                                        PM013200
&NAME    LA    &R1,0(,&R1)         PURIFY HIGH-ORDER BYTE               PM013210
         AGO   .A02                                                     PM013220
.A01     ANOP                                                           PM013230
&NAME    LA    &R1,0(,&R2)         PURIFY HIGH-ORDER BYTE               PM013240
.A02     LTR   &R1,&R1             TEST REGISTER VALUE                  PM013250
         MEND                                                           PM013260
