         MACRO                                                          BC000210
&NAME    MS01  &DUMMY                                                   BC000220
*********************************************************************** BC000230
*        FORMAT OF MS01 CONTROL CARD                                  * BC000240
*********************************************************************** BC000250
         SPACE 1                                                        BC000260
*        SPECIFIES THE REPORT HEADING FOR THE BATCH BALANCING REPRRT    BC000270
         SPACE 1                                                        BC000280
MS01CARD DSECT                                                          BC000290
MS01ID   DS    CL4                 CARD ID ('MS01')                     BC000300
MS01SPCE DS    CL1                 REPORT LINE SPACING                  BC000310
MS01LIST DS    CL1                 DATA TO BE LISTED                    BC000320
*                                   ' ' - LIST ALL DATA                 BC000330
*                                   '1' - PRINT TOTALS & RECS IN ERROR  BC000340
*                                   'N' - PRINT TOTALS & RECS IN ERROR  BC000350
*                                   '2' - PRINT CONTROL TOTALS ONLY     BC000360
MS01HEAD DS    CL74                REPORT HEADING                       BC000370
MS01LGTH EQU   *-MS01CARD                                               BC000380
         MEND                                                           BC000390
