         MACRO                                                          BC007850
&NAME    MS40  &DUMMY                                                   BC007860
*********************************************************************** BC007870
*        FPRMAT OF MS40 CONTROL CARD                                  * BC007880
*********************************************************************** BC007890
         SPACE 1                                                        BC007900
*        INDICATES THE START OF A SUB-ROUTINE COMPOSED OF MS11,12,13,14 BC007910
*         CARDS THAT MAY BE INVOKED BY AN MS13 CARD.                    BC007920
*        THIS IS TO AVOID UNNECESSARY DUPLICATION OF CONTROL  CARDS     BC007930
*         WHERE SOME TESTS AND FUNCTIONS ARE COMMON TO DIFFERENT        BC007940
*         CARD TYPES.                                                   BC007950
         SPACE 1                                                        BC007960
MS40CARD DSECT                                                          BC007970
MS40ID   DS    CL4                 CARD ID ('MS40')                     BC007980
MS40RID  DS    CL2                 SUBROUTINE NAME ( LABEL )            BC007990
         DS    CL74                UNUSED                               BC008000
MS40LGTH EQU   *-MS40CARD          LENGTH OF DSECT                      BC008010
         MEND                                                           BC008020
