         MACRO                                                          BM011630
&NAME NUMERIC  &FLD,&LEN,&SIGNED                                        BM011640
         LCLC  &R                                                       BM011650
         LCLC  &L                                                       BM011660
         AIF   ('&FLD'(1,1) NE '(').C1                                  BM011670
&R       SETC  '&FLD(1)'                                                BM011680
&NAME    LA    R1,0(,&R) 0         POINT R1 AT FIELD                    BM011690
         AGO   .C2                                                      BM011700
.C1      ANOP                                                           BM011710
&NAME    LA    R1,&FLD 0           POINT R1 AT FIELD                    BM011720
.C2      AIF   ('&LEN' EQ '').C3                                        BM011730
         LA    R15,&LEN 0          SET LENGTH IN R15                    BM011740
         AGO   .C4                                                      BM011750
.C3      ANOP                                                           BM011760
&L       SETC  'L'''                                                    BM011770
         LA    R15,&L&FLD ^        SET LENGTH IN  R15                   BM011780
.C4      AIF   ('&SIGNED' NE 'SIGNED').C5                               BM011790
         CBAL  R4,NUMRICS ^        PERFORM SIGNED TEST                  BM011800
         MEXIT                                                          BM011810
.C5      CBAL  R4,NUMERIC ^        PERFORM NUMERIC TEST                 BM011820
         MEND                                                           BM011830
