         MACRO                                                          PM011540
&NAME    PPPLL &SOURCE,&DEST                                            PM011550
.*                                                                      PM011560
.*       GENERATE LINKAGE TO PPPLL CONVERSION ROUTINE                   PM011570
.*                                                                      PM011580
&NAME    LA    R2,&SOURCE          POINT R2 AT SOURCE EBCDIC PPPLL      PM011590
         LA    R3,&DEST            POINT R3 AT DESTINATION BINARY PPL   PM011600
         CBAL  R4,PPPLL            PERFORM CONVERSION ROUTINE           PM011610
         MEND                                                           PM011620
