         MACRO                                                          BD012980
&NAME    RIGAM &DUMMY                                                   BD012990
*********************************************************************** BD013000
*        FORMAT OF RIGAM PARAMETER AREA                               * BD013010
*********************************************************************** BD013020
         SPACE 1                                                        BD013030
RIGAMLNK DSECT                                                          BD013040
RIGMNOT1 DS    H                   NO OF TYPE 1 FILES                   BD013050
RIGMNOT2 DS    H                   NO OF TYPE 2 FILES                   BD013060
RIGMRECN DS    F                   ABSOLUTE RECORD NUMBER               BD013070
RIGMIND  DS    H                   RESULT INDICATOR                     BD013080
RIGMOPCD DS    CL3                 OPERATION CODE                       BD013090
RIGMFTYP DS    CL1                 FILE TYPE ( 1/2 )                    BD013100
RIGMFNO  DS    CL3                 FILE NUMBER                          BD013110
RIGMKEY  DS    CL35                RECORD KEY                           BD013120
RIGMMIO1 DS    CL1                 MUST BE 'N'                          BD013130
RIGMMIO2 DS    CL1                 MUST BE 'N'                          BD013140
RIGMLGTH EQU   *-RIGAMLNK          LENGTH OF DSECT                      BD013150
         MEND                                                           BD013160
