         MACRO                                                          PC005150
&NAME SCBUCKET &DUMMY                                                   PC005160
*********************************************************************** PC005170
*        FORMAT OF SELECTION CRITERION 'BUCKET'                       * PC005180
*********************************************************************** PC005190
         SPACE 1                                                        PC005200
*        THIS 'BUCKET' OF FIELDS OCCURS IN GR02/04/10/11/12 CARDS       PC005210
         SPACE 1                                                        PC005220
*        THE FIRST SIX BYTES ( PPPLL AND FIELD TYPE ) ALSO OCCURS IN    PC005230
*         GR03 KEY DEFINITION BUCKETS.                                  PC005240
         SPACE 1                                                        PC005250
TESTBKET DSECT                                                          PC005260
TESTPOS  DS    CL3                 POSN OF FIELD TO BE TESTED           PC005270
TESTLEN  DS    0CL2                LGTH OF FIELD TO BE TESTED           PC005280
TESTID   DS    CL2                  OR ID OF GR04/07 FLD TO BE TESTED   PC005290
*                                   ( GR10/11/12 CARDS ONLY )           PC005300
TESTTYP  DS    CL1                 TYPE OF FIELD                        PC005310
*                                   ' ' - UNPACKED NUMERIC              PC005320
*                                   'N' - UNPACKED NUMERIC              PC005330
*                                   'C' - CHARACTER                     PC005340
*                                   'P' - PACKED DECIMAL                PC005350
*                                   'X' - HEXADECIMAL CONSTANT          PC005360
*                                   'B' - BIT STRING                    PC005370
*                                   'M' - PARTIAL (CHARACTER) MASK      PC005380
*                                   '1' - BINARY                        PC005390
*                                   'F' - FLOATING POINT                PC005400
*                                   'S' - CHARACTER STRING              PC005410
*                                   'G' - FREE FORMAT DISPLAY NUMERIC   PC005420
TESTTEST DS    CL2                 TEST TYPE                            PC005430
*                                   (EQ/NE/GT/GE/LT/LE/ON/OF)           PC005440
TESTVALU DS    CL11                LITERAL COMPARAND VALUE              PC005450
*                                   NUMERIC: RIGHT-JUSTIFIED            PC005460
*                                   OTHER: ANY ALIGNMENT IN QUOTES      PC005470
TESTLGTH EQU   *-TESTBKET          LENGTH OF DSECT                      PC005480
         MEND                                                           PC005490
