         MACRO                                                          PM010540
&NAME    SUBLR &REG,&REG2                                               PM010550
.*                                                                      PM010560
.*       REFRESH REGISTER FROM SUBIN SAVE AREA                          PM010570
.*                                                                      PM010580
.* OR    LOAD &REG WITH CONTENTS OF SUBIN SAVE AREA FOR &REG2           PM010590
.*                                                                      PM010600
         GBLA  &SUBINC                                                  PM010610
         GBLC  &SUBALL                                                  PM010620
         LCLC  &R                                                       PM010630
&R       SETC  '&REG'                                                   PM010640
         AIF   ('&REG2' EQ '').A01                                      PM010650
&R       SETC  '&REG2'                                                  PM010660
.A01     ANOP                                                           PM010670
         AIF   ('&SUBALL' EQ ' ').A02                                   PM010680
&NAME    L     &REG,&SUBALL.+(4*&R) REFRESH REGISTER FROM SUBIN SAVAREA PM010690
         MEXIT                                                          PM010700
.A02     ANOP                                                           PM010710
&NAME    L     &REG,$&SUBINC.&R    REFRESH REGISTER FROM SUBIN SAVEAREA PM010720
         MEND                                                           PM010730
