         MACRO                                                          BM010610
&NAME   VERSID &A                                                       BM010620
&NAME    DC    CL8'BUDGIE3&A' ^    CSECT NAME                           BM010630
         DC    CL8'VERS 2.1' ^     BUDGIE3 VERSION NUMBER               BM010640
         DC    CL8'&SYSDATE' ^     DATE CSECT ASSEMBLED                 BM010650
         DC    CL8'&SYSTIME' ^     TIME CSECT ASSEMBLED                 BM010660
         MEND                                                           BM010670
