         MACRO                                                          BM006940
&NAME    CBAL  &R,&RTN                                                  BM006950
         LCLC  &T                                                       BM006960
.*                                                                      BM006970
.*       ESTABLISH LINKAGE TO SUB-ROUTINE                               BM006980
.*                                                                      BM006990
&T       SETC  T'&RTN                                                   BM007000
         AIF   (T'&RTN EQ 'U').A01 BR IF ROUTINE UNDEFINED              BM007010
         AIF   (T'&RTN EQ 'T').A01 BRANCH IF ROUTINE EXTRN              BM007020
         AIF   (T'&RTN EQ '$').A01 BRANCH IF ROUTINE WXTRN              BM007030
.*                                                                      BM007040
.*       ASSUME THAT THE ROUTINE EXISTS IN THIS CSECT                   BM007050
.*                                                                      BM007060
         AIF   ('&R' NE '').A00                                         BM007070
&NAME    B     &RTN ^              GO TO REQUESTED ROUTINE              BM007080
         MEXIT                                                          BM007090
.A00     ANOP                                                           BM007100
&NAME    BAL   &R,&RTN ^           PERFROM REQUESTED ROUTINE            BM007110
         MEXIT                                                          BM007120
.A01     ANOP                                                           BM007130
.*                                                                      BM007140
.*       ROUTINE IS IN ANOTHER CSECT SO ESTABLISH LINKAGE VIA CCB       BM007150
.*                                                                      BM007160
&NAME    LA    R11,$&RTN ^         POINT AT RTN DEFINITION IN CCB       BM007170
         AIF   ('&R' NE '').A03                                         BM007180
         B     $CBALINK ^          BR TO LINKAGE ROUTINE                BM007190
         MEXIT                                                          BM007200
.A03     ANOP                                                           BM007210
         BAL   R4,$CBALINK ^       BR TO LINKAGE ROUTINE                BM007220
.A04     ANOP                                                           BM007230
         AIF   ('&SYSECT' EQ 'BUDGIE3').A02                             BM007240
         L     R12,$&RTN.+4 ^      RESTORE SUB-CSECT BASE REGISTER      BM007250
.A02     ANOP                                                           BM007260
         MEND                                                           BM007270
