         MACRO                                                          BM008980
&NAME   SUBOUT &RESTORE=,&PREFIX=,&RETURN=                              BM008990
         GBLA  &SUBINC                                                  BM009000
         LCLA  &N,&S                                                    BM009010
         LCLC  &R,&P,&PP,&B                                             BM009020
         AIF   ('&NAME' EQ '').NONAME                                   BM009030
&NAME    DS    0H 0                                                     BM009040
.NONAME  ANOP                                                           BM009050
&N       SETA  N'&RESTORE                                               BM009060
         AIF   (&N NE 0).C3                                             BM009070
.C1      ANOP                                                           BM009080
&B       SETC  'R4'                                                     BM009090
         AIF   ('&RETURN' EQ '').C2                                     BM009100
         AIF   ('&RETURN'(1,1) NE '(').C11                              BM009110
&B       SETC  '&RETURN(1)'                                             BM009120
         AGO   .C2                                                      BM009130
.C11     ANOP                                                           BM009140
&B       SETC  '&RETURN'                                                BM009150
         B     &B 0                RETURN TO CALLER                     BM009160
         MEXIT                                                          BM009170
.C2      BR    &B 0                RETURN TO CALLER                     BM009180
         MEXIT                                                          BM009190
.C3      ANOP                                                           BM009200
         AIF   ('&RESTORE' EQ 'ALL').G00                                BM009210
&P       SETC  '&PREFIX'                                                BM009220
         AIF   ('&P' EQ '').C4                                          BM009230
&PP      SETC  '&P.SAVE'                                                BM009240
         AGO   .C5                                                      BM009250
.C4      ANOP                                                           BM009260
&PP      SETC  '$&SUBINC'                                               BM009270
.C5      ANOP                                                           BM009280
&S       SETA  &S+1                                                     BM009290
         AIF   (&S GT &N).C1                                            BM009300
         L     &RESTORE(&S),&PP&RESTORE(&S) 0     RESTORE REGISTER      BM009310
         AGO   .C5                                                      BM009320
         MEXIT                                                          BM009330
.G00     ANOP                                                           BM009340
&P       SETC  '&PREFIX'                                                BM009350
         AIF   ('&P' NE '').G01                                         BM009360
&P       SETC  '$&SUBINC'                                               BM009370
.G01     ANOP                                                           BM009380
&PP      SETC  '&P.ALL'                                                 BM009390
         LM    R0,R15,&PP ^        RESTORE ALL REGISTERS                BM009400
         AGO   .C1                                                      BM009410
         MEND                                                           BM009420
