./ ADD NAME=CCB                                                         BD000010
         MACRO                                                          BD000020
&NAME    CCB   &DSECT=YES                                               BD000030
         AIF   ('&DSECT' EQ 'NO').DSN01                                 BD000040
CCBNTRY  DSECT                                                          BD000050
         AGO   .DSY01                                                   BD000060
.DSN01   ANOP                                                           BD000070
CCBNTRY  EQU   *                   START OF CENTRAL CONTROL BLOCK       BD000080
.DSY01   ANOP                                                           BD000090
$SAVAREA DC    18F'0'              REGISTER SAVE AREA                   BD000100
         SPACE 1                                                        BD000110
$WRKDUBL DS    PL8                 DOUBLE WORD WORK AREA                BD000120
$FPFP    DC    D'0'                FLOATING POINT NUMBER                BD000130
$FPVAL1  DC    D'0'                FLOATING POINT WORK AREA             BD000140
$FPVAL2  DC    D'0'                FLOATING POINT WORK AREA             BD000150
$FPDEC   DC    PL16'0'             PACKED DECIMAL EQUIVALENT OF FP NO.  BD000160
$WRKPACK DS    2F                  PACKED DECIMAL WORK AREA             BD000170
$WRKPCKL DS    4F                  LONG PACKED DECIMAL WORK AREA        BD000180
$WRKSNGL DS    F                   SINGLE WORD WORK AREA                BD000190
         EJECT                                                          BD000200
*********************************************************************** BD000210
*        CSECT ADDRESSES AND STORAGE POOL DEFINITIONS                 * BD000220
*********************************************************************** BD000230
         SPACE 1                                                        BD000240
$ADRVCON DS    0F                  ADDRESS OF 1ST CSECT DEFINITION      BD000250
$NUMPOOL DC    AL1(($POOLEND-$VBUDG3A)/8) NUMBER OF STORAGE POOL DEF'NS BD000260
         DC    AL3($1STCSCT)       ADDRESS OF 1ST FOLLOWING CSECT DEFIN BD000270
$1STCSCT DS    0F                  FIRST CSECT DEFINITION               BD000280
       POOLFER A,FREE              DEFINE CSECT BUDGIE3A                BD000290
       POOLFER B,FREE              DEFINE CSECT BUDGIE3B                BD000300
       POOLFER C,FREE              DEFINE CSECT BUDGIE3C                BD000310
       POOLFER D,FREE              DEFINE CSECT BUDGIE3D                BD000320
       POOLFER E                   DEFINE CSECT BUDGIE3E                BD000330
       POOLFER F                   DEFINE CSECT BUDGIE3F                BD000340
       POOLFER G                   DEFINE CSECT BUDGIE3G                BD000350
       POOLFER H                   DEFINE CSECT BUDGIE3H                BD000360
       POOLFER I                   DEFINE CSECT BUDGIE3I                BD000370
       POOLFER J                   DEFINE CSECT BUDGIE3J                BD000380
       POOLFER K                   DEFINE CSECT BUDGIE3K                BD000390
       POOLFER L                   DEFINE CSECT BUDGIE3L                BD000400
       POOLFER M,FREE              DEFINE CSECT BUDGIE3M                BD000410
       POOLFER N                   DEFINE CSECT BUDGIE3N                BD000420
       POOLFER O,FREE              DEFINE CSECT BUDGIE3O                BD000430
       POOLFER P,FREE              DEFINE CSECT BUDGIE3P                BD000440
       POOLFER Q,FREE              DEFINE CSECT BUDGIE3Q                BD000450
       POOLFER R,FREE              DEFINE CSECT BUDGIE3R                BD000460
       POOLFER S                   DEFINE CSECT BUDGIE3S                BD000470
       POOLFER T                   DEFINE CSECT BUDGIE3T                BD000480
       POOLFER U,FREE              DEFINE CSECT BUDGIE3U                BD000490
       POOLFER V                   DEFINE CSECT BUDGIE3V                BD000500
       POOLFER W                   DEFINE CSECT BUDGIE3W                BD000510
       POOLFER X                   DEFINE CSECT BUDGIE3X                BD000520
       POOLFER Y                   DEFINE CSECT BUDGIE3Y                BD000530
       POOLFER Z                   DEFINE CSECT BUDGIE3Z                BD000540
         SPACE 1                                                        BD000550
*        SPARE FIELDS FOR EXTRA CSECT DEFINITIONS                       BD000560
         SPACE 1                                                        BD000570
         DC    A(0),A(0),A(0),A(0) SPARE FIELDS FOR EXTRA CSECT DEFIN'N BD000580
         DC    A(0),A(0),A(0),A(0) SPARE FIELDS FOR EXTRA CSECT DEFIN'N BD000590
         DC    A(0),A(0),A(0),A(0) SPARE FIELDS FOR EXTRA CSECT DEFIN'N BD000600
         DC    A(0),A(0),A(0),A(0) SPARE FIELDS FOR EXTRA CSECT DEFIN'N BD000610
         SPACE 1                                                        BD000620
$GETCORE DC    A(0),A(5000),A(0),A(0) GETMAINED CORE FOR C/B'S          BD000630
$GETPL1  DC    A(0),A(0),A(0),A(0) DYNAMICALLY ACQUIRED POOL            BD000640
         DC    A(0),A(0),A(0),A(0) DYNAMICALLY ACQUIRED POOL            BD000650
         DC    A(0),A(0),A(0),A(0) DYNAMICALLY ACQUIRED POOL            BD000660
         DC    A(0),A(0),A(0),A(0) DYNAMICALLY ACQUIRED POOL            BD000670
         DC    A(0),A(0),A(0),A(0) DYNAMICALLY ACQUIRED POOL            BD000680
$POOLEND EQU   *                   END OF CSECT/POOL DEFINITIONS        BD000690
         SPACE 1                                                        BD000700
$POOLNO  DC    AL2(($POOLEND-$VBUDG3A)/8) NUMBER OF STORAGE POOL DEF'NS BD000710
$POOLRCL DC    H'0'                LENGTH OF RECORDS IN POOL            BD000720
$POOLCNT DC    F'0'                CURRENT WORKFILE RECORD COUNT        BD000730
$POOLEOD DC    F'0'                NO OF RECS IN WORKFILE (DEFINES EOD) BD000740
$POOLMAX DC    F'0'                TOTAL CAPACITY OF INTERNAL WORKFILE  BD000750
         EJECT                                                          BD000760
*********************************************************************** BD000770
*        ROUTINE ADDRESSES                                            * BD000780
*********************************************************************** BD000790
         SPACE 1                                                        BD000800
$ADRRTNS DS    0F                  ADDRESS OF FIRST RTN DESCRIPTOR      BD000810
$NUMRTNS DC    AL1(($RTNEND-$RTNSTRT)/8) NO. OF ROUTINE DESCRIPTORS     BD000820
         DC    AL3($RTNSTRT)       ADDRESS OF FIRST RTN DESCRIPTOR      BD000830
$RTNSTRT EQU   *                   START OF ROUTINE DESCRIPTORS         BD000840
        RTNDEF BATCHI F            BATCH INITIALISATION                 BD000850
        RTNDEF BATCHT F            BATCH TERMINATION                    BD000860
        RTNDEF BCSCAN F            DETERMINE IF RECORD IS BATCH CARD    BD000870
        RTNDEF BLDLOG L            BUILD BATCH LOG STATUS REPORT DETAIL BD000880
        RTNDEF CB13TST E           PROCESS CHAIN OF CB13'S              BD000890
        RTNDEF CLOSE L             CLOSE SEQUENTAIL DATA SETS           BD000900
        RTNDEF COMPARE G           DETERMINE RESULT OF COMPARE          BD000910
        RTNDEF CTESTC7 Q           PERFORM MATHEMATICAL OOERATOIN       BD000920
        RTNDEF CTESTE1 P           PARTIAL KEY MATCHING ROUTINE         BD000930
        RTNDEF CTESTI M            PERFRM ISAM LOOKUP                   BD000940
        RTNDEF CTESTL9 H           CURRENCY CONVERSION, ETC             BD000950
        RTNDEF DETAIL E            PROCESS DETAIL REORD                 BD000960
        RTNDEF EXTRACT G           EXTRACT FIELD FROM RECORD            BD000970
        RTNDEF DUMP N              ABNORMAL TERMINATION ROUTINE         BD000980
        RTNDEF GETLOG L            READ FROM LOGIN                      BD000990
        RTNDEF GETMAIN O           SUBALLOCATE STORAGE POOL / GETMAIN   BD001000
        RTNDEF GETSUSP L           READ FROM SUSPIN                     BD001010
        RTNDEF HEADBB L            B/B REPORT HEADING ROUTINE           BD001020
        RTNDEF HEADLOG L           BATCH LOG STATUS REPORT HEADING RTN  BD001030
        RTNDEF INITPH1 A           1ST PHASE OF INITIALISATION          BD001040
        RTNDEF INITPH2 A           2ND PHASE OF INITIALISATION          BD001050
        RTNDEF INITPH3 A           3RD PHASE OF INITIALISATION          BD001060
        RTNDEF INITPRM O           PARM FIELD PROCESSING                BD001070
        RTNDEF IOERRTN L           I/O ERROR ANALYSIS ROUTINE           BD001080
        RTNDEF ISCLOSE M           CLOSE ISAM DATA SETS                 BD001090
        RTNDEF ISDCB M             CONSTRUCT ISAM DCB DYNAMICALLY       BD001100
        RTNDEF JOINCB R            INTERCONNECT CONTROL BLOCKS          BD001110
        RTNDEF NUMERIC G           VERIFY FIELD IS NUMERIC              BD001120
        RTNDEF NUMRICS G           VERIFY FIELD IS SIGNED NUMERIC       BD001130
        RTNDEF OPEN L              OPEN SEQUENTIAL DATA SETS            BD001140
        RTNDEF PPLLPL O            CONVERT PPLL TO PL                   BD001150
        RTNDEF PPLPL O             CONVERT PPL TO PL                    BD001160
        RTNDEF PPPLLPL O           CONVERT PPPLL TO PL                  BD001170
        RTNDEF PPPLPL O            CONVERT PPPL TO PL                   BD001180
        RTNDEF PRINT L             WRITE TO SYSPRINT                    BD001190
        RTNDEF PRNTBBL L           WRITE B/B REPORT (PRINT)             BD001200
        RTNDEF PRNTLOG L           PRINT BATCH LOG STATUS REPORT        BD001210
         EJECT                                                          BD001220
*********************************************************************** BD001230
*        ROUTINE ADDRESSES ( CONT'D )                                 * BD001240
*********************************************************************** BD001250
         SPACE 1                                                        BD001260
        RTNDEF PUTDLET L           WRITE TO DELETED                     BD001270
        RTNDEF PUTDUP L            WRITE TO DUPLICAT                    BD001280
        RTNDEF PUTINTR L           WRITE TO INTERNAL READER             BD001290
        RTNDEF PUTLOG L            WRITE TO LOGOUT                      BD001300
        RTNDEF PUTMON L            WRITE TO MONITOR DATA SET            BD001310
        RTNDEF PUTSUSP L           WRITE TO SUSPOUT                     BD001320
        RTNDEF PUTUT2 L            WRITE TO SYSUT2                      BD001330
        RTNDEF READCC B            PROCESS CONTROL CARDS                BD001340
        RTNDEF READCC2 C           PROCESS CONTROL CARDS ( CONT'D )     BD001350
        RTNDEF READCC3 D           PROCESS CONTROL CARDS ( CONT'D )     BD001360
        RTNDEF READIN L            READ FROM SYSIN                      BD001370
        RTNDEF READLIN L           READ AND PRINT BUDGIE LOGO           BD001380
        RTNDEF READUT1 L           READ INPUT BATCHES                   BD001390
        RTNDEF SETINDS J           SET INDICATOR AT BATCH & DETAIL LEVL BD001400
        RTNDEF SFVERIF G           VERIFY SUBFIELD IS NUMERIC           BD001410
        RTNDEF STAE S              STAE ERROR ANALYSIS ROUTINE          BD001420
        RTNDEF TERMPH1 N           1ST PHASE OF TERMINATION             BD001430
        RTNDEF TESTIND J           TEST DETAIL LEVEL INDICATOR          BD001440
        RTNDEF TESTREQ R           DETERMINE INTERNAL TEST CODE         BD001450
        RTNDEF TESTRTN G           PREPARE TO RETRUN AFTER TEST/OPERATN BD001460
        RTNDEF TESTSEL G           SELECT AND PERFORM APPROPRIATE ROUTI BD001470
        RTNDEF TESTSL2 H           SELECT AND PERFROM REQUIRED TEST     BD001480
        RTNDEF TESTSL3 I           SELECT AND PERFROM REQUIRED TEST     BD001490
        RTNDEF TESTSL4 J           SELECT AND PERFROM REQUIRED TEST     BD001500
        RTNDEF TESTSN G            TEST FIELD FOR SIGNED NUMERIC        BD001510
        RTNDEF TESTUN G            TEST FIELD FOR UNSIGNED NUMERIC      BD001520
        RTNDEF TIOTSCN L           SCAN TIOT FOR DDNAME                 BD001530
        RTNDEF UNDRSCR G           UNDERLINE FIELD IN ERROR             BD001540
        RTNDEF URTCALL U           PERFORM USER ROUTINE                 BD001550
        RTNDEF URTDLET U           TERMINATE USER ROUTINE               BD001560
        RTNDEF URTLOAD U           INITIALISE USER ROUTINE              BD001570
        RTNDEF VARMOVE G           VARIABLR LENGTH MOVE ROUTINE         BD001580
        RTNDEF WORKCAP W           DETERMINE CAPACITY OF STORAGE POOLS  BD001590
        RTNDEF WORKGET W           READ FROM WORKPOOL / WORKFILE        BD001600
        RTNDEF WORKOPC W           CLOSE WORKPOOL / WORKFILE            BD001610
        RTNDEF WORKOPI W           OPEN WORKPOOL / WORKFILE FOR INPUT   BD001620
        RTNDEF WORKOPO W           OPEN WORKPOOL / WORKFILE FOR OUTPUT  BD001630
        RTNDEF WORKPUT W           WRITE TO WORK FILE                   BD001640
$RTNEND  EQU   *                   END OF ROUTINE DESCRIPTORS           BD001650
         EJECT                                                          BD001660
*********************************************************************** BD001670
*        BRANCHES TO CENTRAL CONTROL ROUTINES                         * BD001680
*********************************************************************** BD001690
         SPACE 1                                                        BD001700
         AIF   ('&DSECT' EQ 'YES').DSY02                                BD001710
$CBALINK B     CBALINK             ESTABLISH CBAL LINKAGE               BD001720
         SPACE 1                                                        BD001730
         USING $IOERROR,R15        ESTABLISH SYNAD EXIT ADDRESSABILITY  BD001740
#IOERROR EQU   *                   'ALIAS' OF $IOERROR FOR DCB ADCONS   BD001750
$IOERROR B     IOEREXIT            BR TO I/O ERROR INTERFACE ROUTINE    BD001760
         DROP  R15                 DROP SYNAD EXIT ADDRESSABILITY       BD001770
         SPACE 1                                                        BD001780
         USING $STAEXIT,R15        ESTABLISH ESTAE EXIT ADDRESSABILITY  BD001790
$STAEXIT B     STAEXIT             BR TO STAE INTERFACE ROUTINE         BD001800
         DROP  R15                 DROP ESTAE EXIT ADDRESSABILITY       BD001810
         SPACE 1                                                        BD001820
         USING $STIMEND,R15        ESTABLISH STIMER EXIT ADDRESSABILITY BD001830
$STIMEND B     STIMEND             INTERCEPT PROBABLE USER LOOP         BD001840
         DROP  R15                 DROP STIMER EXIT ADDRESSABILITY      BD001850
         SPACE 1                                                        BD001860
         USING $MONITOR,R15        ESTABLISH TEMPORARY ADDRESSABILITY   BD001870
$MONITOR B     MONITOR             BRANCH TO MONITORING ROUTINE         BD001880
         DROP  R15                 DROP TEMPORARY ADDRESSABILITY        BD001890
         AGO   .DSY03                                                   BD001900
.DSY02   ANOP                                                           BD001910
$CBALINK DS    F                   ESTABLISH CBAL LINKAGE               BD001920
$IOERROR DS    F                   BR TO I/O ERROR INTERFACE ROUTINE    BD001930
$STAEXIT DS    F                   BR TO STAE INTERFACE ROUTINE         BD001940
$STIMEND DS    F                   INTERCEPT PROBABLE USER LOOP         BD001950
$MONITOR DS    F                   BRANCH TO MONITORING ROUTINE         BD001960
.DSY03   ANOP                                                           BD001970
         EJECT                                                          BD001980
*********************************************************************** BD001990
*        CURRENT CONTROL BLOCK POINTERS                               * BD002000
*********************************************************************** BD002010
         SPACE 1                                                        BD002020
$PTRCB02 DC    A($FSTCB02)         ADDRESS OF CURRENT CB02              BD002030
$PTRCB03 DC    A(0)                ADDRESS OF CURRENT CB03              BD002040
$PTRCB04 DC    A(0)                ADDRESS OF CURRENT CB04              BD002050
$PTRCB05 DC    A(0)                ADDRESS OF CURRENT CB05              BD002060
$PTRCB11 DC    A(0)                ADDRESS OF CURRENT CB11              BD002070
$PTRSB11 DC    A(0)                ADDRESS OF CURRENT SB11              BD002080
$PTRCB13 DC    A(0)                ADDRESS OF CURRENT CB13              BD002090
$PTRCB14 DC    A(0)                ADDRESS OF CURRENT CB14              BD002100
$PTRCB15 DC    A(0)                ADDRESS OF CURRENT CB15              BD002110
$PTRCB16 DC    A(0)                ADDRESS OF CURRENT CB16              BD002120
$PTRCB21 DC    A(0)                ADDRESS OF CURRENT CB21              BD002130
$PTRCB41 DC    A(0)                ADDRESS OF CURRENT CB41              BD002140
$PTRCB30 DS    0F                  ADDRESS OF CURRENT CB30              BD002150
$PTRCB31 DS    0F                  ADDRESS OF CURRENT CB31              BD002160
$PTRCB32 DS    0F                  ADDRESS OF CURRENT CB32              BD002170
$PTRCB33 DS    0F                  ADDRESS OF CURRENT CB33              BD002180
$PTRCB34 DS    0F                  ADDRESS OF CURRENT CB34              BD002190
$PTRCB35 DS    0F                  ADDRESS OF CURRENT CB35              BD002200
$PTRCB36 DS    0F                  ADDRESS OF CURRENT CB36              BD002210
$PTRCB40 DS    0F                  ADDRESS OF CURRENT CB40              BD002220
$PTRCB20 DC    A($FSTCB20)         ADDRESS OF CURRENT CB20/30/31/32/33/ BD002230
         SPACE 1                                                        BD002240
$NXTCB02 DC    A(0)                ADDRESS OF NEXT CB02                 BD002250
$CBP1ST  DC    F'0'                ADDRESS OF 1ST C/B PREFIX            BD002260
$CBPLAST DC    A($CBP1ST)          ADDRESS OF LAST C/B PREFIX           BD002270
         SPACE 5                                                        BD002280
*********************************************************************** BD002290
*        CONTROL BLOCK CHAINS                                         * BD002300
*********************************************************************** BD002310
         SPACE 1                                                        BD002320
$FSTCB02 DC    A(0)                ADDRESS OF 1ST CB02                  BD002330
$FSTCB20 DC    A(0)                ADDRESS OF 1ST CB20/30/31/32/33/34/. BD002340
         EJECT                                                          BD002350
*********************************************************************** BD002360
*        DCBSW SUB-CONTROL BLOCKS                                     * BD002370
*********************************************************************** BD002380
         SPACE 1                                                        BD002390
         PUSH  PRINT               PRESERVE PRINT OPTIONS               BD002400
         PRINT NOGEN               SUPPRESS MACRO EXPANSION             BD002410
SYSUT1   IOM   DCBSW,SYSUT1,DCB01,INPUT,MANDAT                          BD002420
SYSUT2   IOM   DCBSW,SYSUT2,DCB02,OUTPUT                                BD002430
SYSPRINT IOM   DCBSW,SYSPRINT,DCB03,OUTPUT                              BD002440
SYSIN    IOM   DCBSW,SYSIN,DCB04,INPUT,MANDAT                           BD002450
LOGIN    IOM   DCBSW,LOGIN,DCB05,INPUT                                  BD002460
LOGOUT   IOM   DCBSW,LOGOUT,DCB06,OUTPUT                                BD002470
LOGLIST  IOM   DCBSW,LOGLIST,DCB07,OUTPUT                               BD002480
PRINTBB  IOM   DCBSW,PRINT,DCB08,OUTPUT                                 BD002490
WORK     IOM   DCBSW,WORK,DCB09,OUTPUT                                  BD002500
SUSPIN   IOM   DCBSW,SUSPIN,DCB10,INPUT                                 BD002510
SUSPOUT  IOM   DCBSW,SUSPOUT,DCB11,OUTPUT                               BD002520
DELETED  IOM   DCBSW,DELETED,DCB12,OUTPUT                               BD002530
SYSLIN   IOM   DCBSW,SYSLIN,DCB13,INPUT                                 BD002540
DUPLICAT IOM   DCBSW,DUPLICAT,DCB14,OUTPUT                              BD002550
INTRDR   IOM   DCBSW,INTRDR,DCB15,OUTPUT                                BD002560
SYSMONTR IOM   DCBSW,SYSMONTR,DCB16,OUTPUT                              BD002570
         SPACE 5                                                        BD002580
         DC    7A(0)               SPARE IOM FOR FUTURE EXPANSION       BD002590
         DC    7A(0)               SPARE IOM FOR FUTURE EXPANSION       BD002600
         DC    7A(0)               SPARE IOM FOR FUTURE EXPANSION       BD002610
         DC    7A(0)               SPARE IOM FOR FUTURE EXPANSION       BD002620
         DC    7A(0)               SPARE IOM FOR FUTURE EXPANSION       BD002630
         POP   PRINT               RE-ESTABLISH MACRO GENERATION        BD002640
         EJECT                                                          BD002650
*********************************************************************** BD002660
*        MISCELLANEOUS FIELDS                                         * BD002670
*********************************************************************** BD002680
         SPACE 1                                                        BD002690
$ABNDCDE DC    A(0)                ABEND CODE, WITH DUMP FLAG           BD002700
FULLDUMP EQU   X'80'               PRODUCE FULL CORE DUMP               BD002710
$ADRIGAM DC    A(0)                ADDRESS OF RIGAM                     BD002720
$ADUT458 DC    A(0)                ADDRESS OF UT458 ( DATE ROUINE )     BD002730
$ADUT460 DC    A(0)                ADDRESS OF UT460                     BD002740
$AWORKBC DC    A(0)                ADDRESS OF B/C IN STORAGE POOL       BD002750
$BVALUE  DC    F'0'                VALUE FROM NUMERIC TEST ROUTINES     BD002760
$CBALRTD DC    A(0)                ADDRESS OF MOST RECENT RTN DESCRIPTR BD002770
$CBALRTN DC    A(0)                ADDRESS OF MOST RECENTLY CBAL'ED RTN BD002780
$CBALR12 DC    A(0)                BASE REGISTER OF ISSUER OF LAST CBAL BD002790
$CBALR4  DC    A(0)                CURRENT CBAL RETURN ADDRESS          BD002800
$DBUFF   DC    A(0)                ADDRESS OF DUMMY BUFFER              BD002810
$GETMDYN DC    A(0)                AMOUNT OF CORE DYNAMICALLY ACQUIRED  BD002820
$GETMMC  DC    F'51200'            MAX TO DYNAMICALLY ACQUIRE           BD002830
$GETMUSD DC    A(0)                AMOUNT OF CORE USED FOR C/B ETC      BD002840
$GETMXES DC    A(0)                AMOUNT OF C/B CORE ACQUIRED BY OS GM BD002850
$MONINT  DC    F'38'               MONITORING INTERVAL ( 1/1000 SEC )   BD002860
$PMUT460 DC    A(0)                ADDRESS OF UT460 LINKAGE AREA        BD002870
$PTRPARM DC    A(0)                ADDRESS OF USER RTN PARM AREA        BD002880
$PTRPRMU DC    A(0)                ADDRESS OF USER RTN CONTROL DATA     BD002890
$PTRPRM2 DC    A(0)                ADDR OF OUTPUT||INPUT RECS (SF=IN)   BD002900
$RBADDR  DC    A(0)                ADDRESS OF BUDGIE'S RB               BD002910
$SIZEISX DC    A(0)                SIZE OF ISAM MASTER INDICES          BD002920
$WRKMBLK DC    F'1693'             MAX BLKSIZE FOR WORKFILE             BD002930
         SPACE 1                                                        BD002940
$COMPCDE DC    H'0'                COMPLETION CODE                      BD002950
$RECLINT DC    H'0'                INTERNAL (PSEUDO) RECORD LENGTH      BD002960
$RECLUT1 DC    H'0'                SYSUT1 RECORD LENGTH                 BD002970
$RECLUT2 DC    H'80'               SYSUT2 RECORD LENGTH                 BD002980
         EJECT                                                          BD002990
*********************************************************************** BD003000
*        MISCELLANEOUS FIELDS ( CONT'D )                              * BD003010
*********************************************************************** BD003020
         SPACE 1                                                        BD003030
$BLNECNT DC    PL2'0'              NO OF LINES FOR THIS RECORD          BD003040
$BNOPRT  DC    CL22' '             BATCH NO (WITH HYPHENS) FOR PRINTING BD003050
$CNTACC  DC    PL3'0'              NUMBER OF ACCEPTED BATCHES           BD003060
$CNTREJ  DC    PL3'0'              NUMBER OF REJECTED BATCHES           BD003070
$DATEREP DC    C'01 JAN 99'        IPL DATE IN REPORT FORMAT            BD003080
$DINTVL  DC    C'00000500'         INTERVAL OF 5 SECS FRO STIMER        BD003090
$DTBSPCE DC    X'01'               BASIC SKUP CHAR FOR B/B REPORRT      BD003100
$FLDP    DC    2X'00'              PL FROM CURRENT CB13                 BD003110
$FPDISP  DC    CL33'0'             SIGNED DISPLAY NUMERIC EQUIV TO FP   BD003120
$FPEDISP DC    CL45'0'             EDITED SIGNED DISPLAY NUMERIC FP EQI BD003130
$FPNDEC  DC    BL1'0'              NUMBER OF DECIMAL PLACES IN FP NUMBE BD003140
$IPLDATE DC    C'99001'            IPL DATE IN FORM YYDDD               BD003150
$LOGSUSP DC    C'S'                'R' / 'S' - BATCH LOG STATUS FLAG    BD003160
$MAXDMPS DC    PL2'10'             MAX NUMBER OF ABENDS BEFORE TERMIN'N BD003170
$MMDDYY  DC    C'010199'           IPL DATE IN FORM MMDDYY              BD003180
$ONE     DC    PL1'1'              PACKED CONSTANT OF 1                 BD003190
$PGELMIT DC    PL2'60'             LINES/PAGE FOR EVERY REPROT          BD003200
$PVALUE  DC    PL8'0'              VALUE FROM NUMERIC TEST ROUTINES     BD003210
$SFDFLT  DC    X'11'               DEFAULT TST CODE FOR SIGNED FIELDS   BD003220
$SFTEST  DC    X'00'               TEST CODE FOR SFVERIF                BD003230
$SFUDFLT DC    X'4A'               TEST CODE FOR UNSIGNED TEST          BD003240
$SPACES  DC    CL80' '             CONSTANT OF SPACES                   BD003250
$SUBID   DC    CL20' '             SUBMITTOR ID FROM BATCH CARD         BD003260
$SUBIDP  DC    CL20' '             SUBMITTOR ID (WITH HYPHEND) FOR PRTG BD003270
$TSTAREA DC    CL100' '            GENERAL PURPOSE TEST AREA            BD003280
$TSTTSTX DC    C'X'                USED TO SET COND CODE                BD003290
$ULINEPL DC    2X'00'              PL OF FIELD TO BE UNDERLINED         BD003300
$ULNDECR DC    PL1'1'              DECREMENT LNE CNT AFTER UNDERSCORE   BD003310
$UNDRLNE DC    C'_'                UNDRDESCORE CHARACTER                BD003320
$VERSNO  DC    C'99/99'            VERSION NUMBER FROM UT460            BD003330
$WORKPL  DC    CL2' '              WORK AREA FOR PL                     BD003340
$WRKAREA DC    CL18' '             GENERAL PURPOSE WORK AREA            BD003350
$WRKEDIT DC    CL6' '              WORK AREA FOR EDIT NASKS             BD003360
$ZERO    DC    PL1'0'              PACKED CONSTANT OF ZERO              BD003370
$ZEROES  DC    20C'0'              CONSTANT OF EBCDIC ZEROES            BD003380
         EJECT                                                          BD003390
*********************************************************************** BD003400
*        BATCH NUMBER SAVE/WORK AREAS                                 * BD003410
*********************************************************************** BD003420
         SPACE 1                                                        BD003430
$CURLIN  DC    16X'00'             LOGIN    - CURRENT BATCH NUMBER      BD003440
$CURSCAN DC    16X'00'             BCSCAN   - CURRENT BATCH NUMBER      BD003450
$CURSUSP DC    16X'00'             SUSPIN   - CURRENT BATCH NUMBER      BD003460
$CURUT1  DC    16X'00'             SYSUT1   - CURRENT BATCH NUMBER      BD003470
$NXTLIN  DC    CL16' '             LOGIN    - NEXT BATCH NUMBER         BD003480
$NXTSCAN DC    CL16' '             BCSCAN   - NEXT BATCH NUMBER         BD003490
$NXTSUSP DC    CL16' '             SUSPIN   - NEXT BATCH NUMBER         BD003500
$NXTUT1  DC    CL16' '             SYSUT1   - NEXT BATCH NUMBER         BD003510
$PRVLIN  DC    CL16' '             LOGIN    - PREVIUS BATCH NUMBER      BD003520
$PRVSCAN DC    CL16' '             BCSCAN   - PREVIUS BATCH NUMBER      BD003530
$PRVSUSP DC    CL16' '             SUSPIN   - PREVIUS BATCH NUMBER      BD003540
$PRVUT1  DC    CL16' '             SYSUT1   - PREVIUS BATCH NUMBER      BD003550
         EJECT                                                          BD003560
*********************************************************************** BD003570
*        SWITCHES                                                     * BD003580
*********************************************************************** BD003590
         SPACE 1                                                        BD003600
*********************************************************************** BD003610
MASTER   DC    X'00'               MASTER CONTROL SWITCH                BD003620
*********************************************************************** BD003630
         SPACE 1                                                        BD003640
SWMNLIST EQU   1                   DATA IS NOT TO BE LISTED             BD003650
SWMHARD  EQU   2                   BATCH CONTAINS HARD ERROR            BD003660
SWMSOFT  EQU   4                   BATCH CONTAINS SOFT ERROR            BD003670
SWMBALNC EQU   8                   BATCH IS OUT OF BALANCE              BD003680
SWMDUPIN EQU   16                  CURRENT BATCH NO. SAME AS LAST       BD003690
SWMDETL  EQU   32                  PROCESSING DETAIL RECORD (EOP RTN)   BD003700