         MACRO
         M00PCB &TYPE=DB,    PCB TYPE TOBE GEN'D (DB OR IO)            *
               &PCB=D1PC     DSECT NAME,MAX 4 CHAR, ALSO USED
.*                           FOR  1ST 4 CHAR OF PCBSUBFIELDS
         LCLC  &NAME
&NAME    SETC  'D1PC'
         AIF   (T'&PCB EQ 'O').L000
         AIF   (K'&PCB LE 4).L100   CORRECT LENGTH ?
         MNOTE *,'  PCB= OPERAND IS TOO LONG, TRUNCATED TO 4 CHAR'
.L100    ANOP
&NAME    SETC  '&PCB'(1,4)
.L000    ANOP
         AIF   ('&TYPE' EQ 'DB').DB000
         AIF   ('&TYPE' EQ 'DC').DC000
         MNOTE *,'TYPE= OPERAND IS INVALID, ''DB'' ASSUMED '
.*
.*
.*                           DATABASE PCB:
.*                           -------------
.DB000   ANOP
         SPACE 3
&NAME    DSECT               LAYOUT OF A DL/1 DATABASE PCB
&NAME.DBDN DS     CL8        DATABASE NAME
&NAME.LEVL DS     CL2        SEGMENT HIERARCHY LEVEL
&NAME.STAT DS     CL2        STATUSCODE
&NAME.PROC DS     CL4        PROCESSING OPTIONS
&NAME.RESV DS   CL4            RESERVED
&NAME.SEGN DS    CL8         SEGMENTNAME FEEDBACK
&NAME.KFBL DS     F          LENGTH OF KEYFEEDBACK
&NAME.NSSG DS     F          NUMBER OF SENSITIVE SEGMENTS
&NAME.KFBA DS     0C         KEYFEEDBACK AREA
         MEXIT
.*
.*
.*                           DC  -  PCB:
.*                           -------------
.DC000   ANOP
         SPACE 3
&NAME    DSECT               LAYOUT OF A DL/1 IO-PCB
&NAME.LTNM DS    CL8         SOURCE/DESTINATION NAME
&NAME.RESV DS   CL2            RESERVED
&NAME.STAT DS     CL2        STATUSCODE
&NAME.PRFX DS  0CL12         INPUTPREFIX
&NAME.DATE DS     PL4        CURRENT DATE
&NAME.TIME DS     PL4        CURRENT TIME
&NAME.MSEQ DS     F          INPUT MESSAGE SEQ.NR.
&NAME.MODN DS     CL8        MESSAGE OUTPUT DESCRIPTION NAME
         MEXIT
         MEND
