         MACRO
&NAME    IOM   &SUBTYPE,&PARM1,&PARM2,&PARM3,&PARM4,&TYPE=,&LOOP=,&RTN=
.*
.*       EQUATES,MAXDD
.*
.*       DCBSW,DDNAME,DCBNAME,INPUT ,MANDAT
.*       DCBSW,DDNAME,DCBNAME,OUTPUT,MANDAT
.*
.*       PUT,DCBSW,(REG),PRINT,LNECNT,RTN=HEADING
.*
.*       PUTM,DCBSW,(REG)
.*
.*       GET,DCBSW,(REG)
.*
.*       GETM,DCBSW,(REG)
.*
.*       OPEN,TYPE=DEF
.*       CLOSE,TYPE=DEF
.*       TIOTSCAN,TYPE=DEF
.*
.*       OPEN,DCBSW,LOOP=1,RTN=OPEN
.*       OPEN,DCBSW,LOOP=N,RTN=NAME
.*
.*       CLOSE,DCBSW,LOOP=1,RTN=CLOSE
.*       CLOSE,DCBSW,LOOP=N,RTN=NAME
.*
.*       TIOTSCAN,DCBSW,LOOP=1,RTN=TIOTSCAN
.*       TIOTSCAN,DCBSW,LOOP=N,RTN=NAME
.*
.*       SUMMARY,DCBSW,(REG),PRESENT,RTN=NAME,LOOP=N
.*
.*       AUDIT,DCBSW,(REG),ENDJOB,RTN=NAME,LOOP=N
.*
.*       EOF,DCBSW
.*
.*       BLKSZRTN,TYPE=DEF
.*
.*       IOERROR,(REG),PRINTRTN,EOJRTN,TYPE=DEF
.*
         LCLA  &MAXDD
         LCLC  &BIT0,&BIT1,&DCB
         LCLC  &B
         LCLC  &LABEL,&RTNE,&REG
         LCLC  &EOJRTNE
         LCLC  &LNECNT
         AIF   ('&SUBTYPE' NE 'EQUATES').B00
IOSWMAND EQU   128 0               DDNAME MANDATORY
IOSWINPT EQU   64 0                INPUT DATA SET (DEFAULT)
IOSWOUTP EQU   191 0               OUTPUT DATA SET            (NI ONLY)
IOSWPRES EQU   32 0                DDNAME PRESENT
IOSWOPEN EQU   16 0                DCB NOW OPEN
IOSWCLOS EQU   239 0               CLOSE DCB                  (NI ONLY)
IOSWEOF  EQU   8 0                 EOF DETECTED
IOSWIOER EQU   4 0                 I/O ERROR DETECTED
IOSWOPNH EQU   2 0                 DCB HAS BEEN OPENED
IOSWEOP  EQU   1 0                 PRINT DATA SET WITH EOP ROUTINE
IOPSSW   EQU   0 0                 DISPLACEMENT IN DCBSW OF SWITCH
IOPSDCB  EQU   0 0                 DISPLACEMENT IN DCBSW OF DCB ADDR
IOPSDDN  EQU   4 0                 DISPLACEMENT IN DCBSW OF DD NAME
IOPSRECA EQU   12 0                DISPLACEMENT IN DCBSW OF REC ADDR
IOPSRCNT EQU   16 0                DISPLACEMENT IN DCBSW OF REC COUNT
IOPSR4SA EQU   20                  DISPLACEMENT IN DCBSW OF R4 S/AREA
IOPSLGTH EQU   24                  LENGTH OF DCBSW
         AIF   ('&PARM1' EQ '').A06
         AIF   (T'&PARM1 NE 'N').A01
&MAXDD   SETA  &PARM1
IOMMAXDD EQU   &MAXDD 0            MAX NO. OF DD STATEMENTS
         AGO   .A06
.A01     MNOTE 4,'MAX NO OF DD STATEMENTS IS NON-NUMERIC'
.A06     ANOP
&MAXDD   SETA  60                  SET DEFAULT LINE COUNT
         AIF   ('&PARM2' EQ '').A05
&MAXDD   SETA  &PARM2
.A05     ANOP
IOPSLCNT DC    P'&MAXDD' ^         DEFAULT LINES / PAGE
.A02     ANOP
         AIF   ('&PARM3' NE '').A03
         AIF   ('&PARM4' NE '').A03
         AIF   ('&TYPE' NE '').A03
         AIF   ('&LOOP' NE '').A03
         AIF   ('&RTN' NE '').A03
         AGO   .A04
.A03     MNOTE *,'THE SUPERFLUOUS OPERANDS CODED WERE IGNORED'
.A04     MEXIT
.B00     AIF   ('&SUBTYPE' NE 'DCBSW').C00
         AIF   ('&PARM1' NE '').B01
         MNOTE 16,'NO DDNAME SUPPLIED FOR DCBSW OPERATION'
         MEXIT
.B01     AIF   ('&PARM2' NE '').B02
&DCB     SETC  '&PARM1'
         MNOTE *,'NO DCB NAME SUPPLIED - DDNAME ASSUMED'
         AGO   .B03
.B02     ANOP
&DCB     SETC  '&PARM2'
.B03     ANOP
&BIT0    SETC  '0'
&BIT1    SETC  '1'
         AIF   ('&PARM3' EQ '').B04
         AIF   ('&PARM3' EQ 'INPUT').B05
         AIF   ('&PARM3' NE 'OUTPUT').B10
&BIT1    SETC  '0'
         AGO   .B05
.B04     MNOTE *,'I/O TYPE NOT SPECIFIED - INPUT ASSUMED'
.B05     AIF   ('&PARM4' EQ '').B06
         AIF   ('&PARM4' NE 'MANDAT').B10
&BIT0    SETC  '1'
         AGO   .B07
.B06     MNOTE *,'DD STATEMENT IS OPTIONAL'
.B07     ANOP
&B       SETC  '000000'
         CNOP  0,4 0               ENSURE CORRECT ALIGNMENT
&NAME    DC    B'&BIT0&BIT1&B',AL3(&DCB),CL8'&PARM1',A(0),PL4'0',A(0)
         AIF   ('&TYPE' NE '').A03
         AIF   ('&LOOP' NE '').A03
         AIF   ('&RTN' NE '').A03
         MEXIT
.B10     MNOTE 16,'UNKNOWN POSITIONAL PARAMETER'
         MEXIT
.C00     AIF   ('&SUBTYPE' EQ 'PUT').C01
         AIF   ('&SUBTYPE' NE 'GET').D00
.C01     AIF   ('&PARM1' NE '').C021
.C011    MNOTE 16,'MANDATORY DCBSW ADDRESS NOT SUPPLIED'
         MEXIT
.C021    ANOP
&NAME    TM    &PARM1.+IOPSSW,IOSWPRES 0IS DD STATEMENT PRESENT
         BZ    IOMC&SYSNDX 0       BYPASS I/O IF NO DD STATEMENT
         TM    &PARM1.+IOPSSW,IOSWOPEN 0 TEST IF DCB OPEN
         BO    IOME&SYSNDX 0       BRANCH IF OPEN
         ST    R4,&PARM1.+IOPSR4SA 0 PRESERVE R4 RETUR  ADDRESS
         LA    R2,&PARM1 ^         POINT R2 AT DCBSW
         CBAL  R4,OPEN 0           OPEN DATA SET
         L     R4,&PARM1.+IOPSR4SA 0 RESTORE SAVED R4 VALUE
IOME&SYSNDX EQU * 0                BYPASS OPEN PROCESSING
         AIF   ('&SUBTYPE' NE 'GET').C023
         TM    &PARM1.+IOPSSW,IOSWEOF 0TEST FOR END OF FILE ALREADY
         BO    IOMC&SYSNDX 0       BR IF EOF ALREADY REACHED
.C023    ANOP
         AIF   ('&SUBTYPE' NE 'PUTM').C024
         LR    R0,&REG ^           POINT R0 AT DATA
         L     R1,&PARM1.+IOPSDCB ^POINT R1 AT DCB ADDRESS
         L     R15,48(0,R1) ^      LOAD PUT ROUTINE ADDRESS
         BALR  R14,R15 ^           LINK TO PUT ROUTINE
         AGO   .C05
.C024    ANOP
         AIF   ('&SUBTYPE' NE 'GETM').C025
         L     R1,&PARM1.+IOPSDCB ^POINT R1 AT DCB ADDRESS
         LR    R0,&REG ^           POINT R0 AT DESTINATION
         L     R15,48(0,R1) ^      LOAD GET ROUTINE ADDRESS
         BALR  R14,R15 ^           LINK TO GET ROUTINE
         AGO   .C05
.C025    ANOP
         AIF   ('&PARM3' NE 'PRINT' OR '&RTN' NE'').C022
IOMD&SYSNDX EQU * 0                LOOP BACK FOR EOP POOCESSING
.C022    ANOP
         L     R1,&PARM1.+IOPSDCB ^POINT R1 AT DCB ADDRESS
         L     R15,48(,R1) 0       GET I/O RTN ADDRESS
         BALR  R14,R15 ^           LINK TO I/O ROUTINE
         ST    R1,&PARM1.+IOPSRECA STORE BUFFER ADDRESS
         AIF   ('&PARM2' EQ '').C05
         AIF   ('&PARM2'(1,1) EQ '(').C04
.C031    MNOTE 16,'INVALID REGISTER SPECIFICATION FOR &SUBTYPE'
         MEXIT
.C04     LR    &PARM2(1),R1 0      SET BUFFER ADDRESS IN WORK REGISTER
.C05     AP    &PARM1.+IOPSRCNT(4),=P'1' 0 INCREMENT RECORD COUNT
         AIF   ('&PARM3' NE 'PRINT').C9
&LNECNT  SETC  '&PARM4'
         AIF   ('&PARM4' NE '').C6
         MNOTE *,'NO LINE COUNT SUPPLIED - DEFAULT ASSUMED'
         CP    &PARM1.+IOPSRCNT(4),IOPSLCNT TEST FOR END OF PAGE
         AGO   .C64
.C6      CP    &PARM1.+IOPSRCNT(4),=P'&LNECNT' 0TEST FOR END OF PAGE
.C64     BL    IOMC&SYSNDX ^       BRANCJ IF NOT
         ZAP   &PARM1.+IOPSRCNT(4),=P'0' 0 ZEROISE LINE COUNT
         OI    &PARM1.+IOPSSW,IOSWEOP 0 SHOW EOP RTN IN USE
         AIF   ('&RTN' NE '').C7
         MNOTE *,'NO EOP ROUTINE SUPPLIED - PAGE SKIP FORCED'
         MVI   0(R1),PAGESKIP 0    ESTABLISH PAGE SKIP
         NI    &PARM1.+IOPSSW,FF-IOSWEOP SET OFF EOP SWITCH
         B     IOMD&SYSNDX 0       SKIP TO NEW PAGE
.C62     ANOP
IOMC&SYSNDX EQU * 0                END OF ROUTINE
.C8      AIF   ('&TYPE' NE '').A03
         AIF   ('&LOOP' NE '').A03
         MEXIT
.C7      ST    R4,IOMD&SYSNDX 0    PRESERVE RETURN ADDRESS
         CBAL  R4,&RTN 0           PERFORM HEADING ROUTINE
         NI    &PARM1.+IOPSSW,FF-IOSWEOP ^SET OFF EOP FLAG
         L     R4,IOMD&SYSNDX 0    RESTORE RETURN ADDRESS
         B     IOMC&SYSNDX 0       BRANCH OVER SAVE AREA
IOMD&SYSNDX DS F 0                 SAVE AREA FOR R4
IOMC&SYSNDX EQU * 0                END OF ROUTINE
         AGO   .C8
.C9      ANOP
IOMC&SYSNDX EQU * 0                 END OF ROUTINE
         AIF   ('&PARM3' NE '').A03
         AIF   ('&PARM4' NE '').A03
         AIF   ('&TYPE' NE '').A03
         AIF   ('&LOOP' NE '').A03
         AIF   ('&RTN' NE '').A03
         MEXIT
.D00     AIF   ('&SUBTYPE' NE 'OPEN').E00
         AIF   ('&TYPE' EQ '').D04
         AIF   ('&TYPE' EQ 'DEF').D02
.D01     MNOTE 16,'UNKNOWN TYPE OPERAND'
         MEXIT
.D02     ANOP
&LABEL   SETC  'OPEN'
         AIF   ('&NAME' EQ '').D03
&LABEL   SETC  '&NAME'
.D03     ANOP
&LABEL   DS    0H 0                ENTRY TO OPEN SUBROUTINE
         L     R1,IOPSDCB(,R2) 0   GET DCB ADDRESS
         TM    IOPSSW(R2),IOSWPRES TEST IF DD STATEMENT PRESENT
         BNO   0(R4) 0             RETURN IF NOT
         TM    IOPSSW(R2),IOSWOPEN 0 TEST IF DATA SET OPEN
         BO    0(R4) 0             RETURN IF DATA STE OPEN
         CNOP  0,4 0               ENSURE CORRECT ALIGNMENT
         ST    R1,*+8 0            STORE DCB ADDRESS
         CBAL  R1,*+8 0            LOAD REG 1 WITH LIST ADDRESS
         DC    A(0) 0              DCB ADDRESS
         TM    IOPSSW(R2),IOSWINPT 0 TEST IF INPUT
         BO    IOMD&SYSNDX 0       BRANCH IF YES
         MVI   0(R1),143 0         SET OPTION BYTE FOR INPUT
         B     *+8 0               GO TO SVC
IOMD&SYSNDX MVI 0(R1),128 ^        SET OPTION BYTE
         SVC   19 0                ISSUE OPEN SVC
         OI IOPSSW(R2),IOSWOPEN+IOSWOPNH INDICATE DATA SET OPEN
         BR    R4 0                RETURN TO MAIN-LINE
.D031    AIF   ('&PARM1' NE '').A03
         AIF   ('&PARM2' NE '').A03
         AIF   ('&PARM3' NE '').A03
         AIF   ('&PARM4' NE '').A03
         AIF   ('&LOOP' NE '').A03
         AIF   ('&RTN' NE '').A03
         MEXIT
.D04     AIF   ('&PARM1' EQ '').C011
         AIF   ('&LOOP' EQ '').D05
&NAME    LA    R10,&LOOP 0         ESTABLISH LOOP
.D05     ANOP
&LABEL   SETC  '&NAME'
         AIF   ('&LOOP' EQ '').D06
&LABEL   SETC  ' '
.D06     ANOP
&LABEL   LA    R2,&PARM1 0         POINT AT DCBSW
         AIF   ('&RTN' EQ '').D07
&RTNE    SETC  '&RTN'
         AGO   .D09
.D07     AIF   ('&SUBTYPE' EQ 'CLOSE').D08
&RTNE    SETC  'OPEN'
         AIF   ('&SUBTYPE' EQ 'OPEN').D09
&RTNE    SETC  'TIOTSCAN'
         AGO   .D09
.D08     ANOP
&RTNE    SETC  'CLOSE'
.D09     ANOP
IOMD&SYSNDX CBAL R4,&RTNE 0        PERFORM SUB-ROUTINE
         AIF   ('&LOOP' EQ '').D10
         LA    R2,IOPSLGTH(,R2) 0  INCREMENT TO NEXT DCBSW
         BCT   R10,IOMD&SYSNDX 0   LOOP BACK TO PROCESS NEXT
.D10     AIF   ('&PARM2' NE '').A03
         AIF   ('&PARM3' NE '').A03
         AIF   ('&PARM4' NE '').A03
         MEXIT
.E00     AIF   ('&SUBTYPE' NE 'CLOSE').F00
         AIF   ('&TYPE' EQ 'DEF').E01
         AIF   ('&TYPE' EQ '').D04
         AGO   .D01
.E01     ANOP
         AIF   ('&SUBTYPE' EQ 'OPEN').D09
&RTNE    SETC  'TIOTSCAN'
&LABEL   SETC  'CLOSE'
         AIF   ('&NAME' EQ '').E02
&LABEL   SETC  '&NAME'
.E02     ANOP
&LABEL   DS    0H 0                ENTRY TO CLOSE SUBROUTINE
         TM    IOPSSW(R2),IOSWOPEN TEST IF DATA SET OPEN
         BZ    0(R4) 0             RETURN IF NOT
         L     R1,IOPSDCB(R2) 0    GET DCB ADDRESS
         CNOP  0,4 0               ENSURE CORRECT ALIGNMENT
         ST    R1,*+8 0            STORE DCB ADDRESS
         CBAL  R1,*+8 0            POINT R1 AT PARM LIST
         DC    A(0) 0              DCB ADDRESS
         MVI   0(R1),128 0         SET OPTION BYTE
         SVC   20 0                ISSUE CLOSE SVC
         L     R1,IOPSDCB(R2) ^    GET DCB ADDRESS
       FREEPOOL (R1) ^             FREE ACQUIRED BUFFER POOL
         NI    IOPSSW(R2),IOSWCLOS INDICATE CLOSED
         BR    R4 0                RETURN TO MAIN-LINE
         AIF   ('&PARM1' NE '').A03
         AIF   ('&PARM2' NE '').A03
         AIF   ('&PARM3' NE '').A03
         AIF   ('&PARM4' NE '').A03
         AIF   ('&LOOP' NE '').A03
         AIF   ('&RTN' NE '').A03
         MEXIT
.F00     AIF   ('&SUBTYPE' NE 'EOF').G00
         AIF   ('&PARM1' EQ '').C011
&NAME    OI    &PARM1.+IOPSSW,IOSWEOF INDICATE EOF
         L     R1,DBUFF ^          POINT R1 AT DUMMY BUFFER
         ST    R1,&PARM1.+IOPSRECA 0PRESERVE DUMMY BUFFER ADDRESS
         AGO   .A02
.G00     AIF   ('&SUBTYPE' NE 'TIOTSCAN').H00
         AIF   ('&TYPE' EQ 'DEF').G01
         AIF   ('&TYPE' NE '').D01
         AGO   .D04
.G01     ANOP
&LABEL   SETC  'TIOTSCAN'
         AIF   ('&NAME' EQ '').G02
&LABEL   SETC  '&NAME'
.G02     ANOP
&LABEL   DS    0H 0                ENTRY TO TIOT SCAN ROUTINE
         BC    0,IOMG&SYSNDX 0     FIRST TIME SWITCH
         OI    *-3,X'F0' 0         SET FIRST TIME SWITCH
         EXTRACT IOMATIOT,'S',FIELDS=TIOT ^OBTAIN ADDRESS OF TOOT
         B     IOMG&SYSNDX ^       BRANCH AROUND SAVE AREAS
IOMATIOT DS    F 0                 ADDRESS OF TIOT
IOMTIOT1 DS    F 0                 SAVE AREA FOR R3
IOMTIOT2 DS    F 0                 SAVE AREA FOR R10
IOMG&SYSNDX EQU * 0                SUBSEQUENT PROCESSING
         ST    R3,IOMTIOT1 0       PRESERVE CONTENTS
         ST    R10,IOMTIOT2 0       OF R3 AND R10
         L     R3,IOMATIOT 0       GET ADDRESS OF TIOT
         LA    R3,24(,R3) 0        POINT AT FIRST DD ENTRY
IOMH&SYSNDX CLC 0(4,R3),=F'0' 0     TEST FOR END OF TIOT
         BE    IOMI&SYSNDX.+4      RETURN IF YES
         CLC   4(8,R3),IOPSDDN(R2) TEST FOR DDNAME MATCH
         BE    IOMI&SYSNDX 0       BRANCH IF YES
         SR    R10,R10 0           ZEROISE WORK REGISTER
         IC    R10,0(R3) 0         INSERT ENTRY LENGTH
         AR    R3,R10 0            INCREMENT TO NEXT ENTRY
         B     IOMH&SYSNDX 0       LOOP TO PROCESS NEXT ENTRY
IOMI&SYSNDX OI IOPSSW(R2),IOSWPRES INDICATE DD STATEMENT PRESENT
         L     R3,IOMTIOT1 0       RETRIEVE CONTENTS
         L     R10,IOMTIOT2 0       OF R3 AND R10
         BR    R4 0                RETURN TO MAIN LINE
         AGO   .D031
.H00     AIF   ('&SUBTYPE' NE 'BLKSZRTN').I00
         AIF   ('&TYPE' EQ 'DEF').H02
         AIF   ('&TYPE' NE '').D01
         MNOTE 16,'INCOMPLETE BLKSIZE REQUEST'
         MEXIT
.H02     ANOP
&LABEL   SETC  'BLKSZRTN'
         AIF   ('&NAME' EQ '').H01
&LABEL   SETC  '&NAME'
.H01     ANOP
&LABEL   DS    0H 0                SUPPLY DEFAULT IF NO BLOCK SIZE
         USING IHADCB,R1 0         ESTABLISH DCB ADDRESSABILITY
         CLI   DCBRECFM,X'00' ^    WAS RECFM SUPPLIED
         BNE   *+8 ^               BR IF RECFM SUPPLIED
         OI    DCBRECFM,DCBRECF+DCBRECBR FORCE 'RECFM=FB' IN NOT SUPPLD
         CLC   DCBBLKSI,=F'0' 0    TEST IF BLKSIZE SUPPLIED
         BNE   0(R14) 0            RETURN TO OPEN IF YES
         MVC   DCBBLKSI,DCBLRECL 0 MOVE LRECL TO BLKSIZE
         BR    R14 0               RETURN TO OS OPEN ROUTINE
         DROP  R1 0                DROP DCB ADDRESSABILITY
         AGO   .D031
.I00     AIF   ('&SUBTYPE' NE 'SUMMARY').J00
         AIF   ('&PARM1' EQ '').C011
         AIF   ('&PARM2' NE '').I01
.I001    MNOTE 16,'MANDATORY REGISTER SPECIFICATION IS MISSING'
         MEXIT
.I01     AIF   ('&PARM2'(1,1) NE '(').C031
         AIF   ('&RTN' NE '').I02
.I011    MNOTE 16,'MANDATORY RTN NAME IS MISSING'
         MEXIT
.I02     ANOP
&NAME    DS    0H 0                PRINT SUMMARY OF D/S ACTIVITY
         LA    R2,&PARM1 0         GET DCBSW ADDRESS
         AIF   ('&LOOP' EQ '').I03
         LA    R10,&LOOP 0         ESTABLISH LOOP
IOMI&SYSNDX EQU * 0                RETURN POINT FOR LOOP
.I03     AIF   ('&PARM3' EQ '').I05
         AIF   ('&PARM3' NE 'PRESENT').B10
         TM    IOPSSW(R2),IOSWPRES TEST IF DD STATEMENT PRESENT
         BZ    IOMJ&SYSNDX 0       BYPASS PROCESSING IF NOT
.I05     ANOP
&REG     SETC  '&PARM2(1)'
         TM    IOPSSW(R2),IOSWEOP ^TEST IF PRINT DATA SET
         BO    IOMJ&SYSNDX ^       BYPASS PROCESSING IF YES
         MVC   LINE12DD,IOPSDDN(R2) ADD DDNAME TO MESSAGE
         MVC   LINE12M2,LINE12M ^  MOVE EDIT MASK TO LINE
         ED    LINE12M2,IOPSRCNT(R2) EDIT THE RECORD COUNT
         MVC   LINE12M1,LINE12R ^  ASSUME IT IS AN INPUT DATA SET
         TM    IOPSSW(R2),IOSWINPT TEST IF INPUT DATA SET
         BO    *+10 ^              BR IF INPUT D/S
         MVC   LINE12M1,LINE12W ^  SHOW OUTPUT DATA SET
         MVC   5(L'LINE12,&REG),LINE12 MOVE MESSAGE TO PRINT LINE
         CBAL  R4,&RTN 0           PERFORM PRINT ROUTINE
IOMJ&SYSNDX EQU * 0                BYPASS BRANCH ADDRESS
.I06     AIF   ('&LOOP' EQ '').I07
         LA    R2,IOPSLGTH(,R2) 0  INCREMENT TO NEXT DCBSW
         BCT   R10,IOMI&SYSNDX 0   LOOP TO PROCESS NEXT
.I07     AIF   ('&PARM4' NE '').A03
         AIF   ('&TYPE' NE '').A03
         MEXIT
.J00     AIF   ('&SUBTYPE' NE 'AUDIT').K00
         AIF   ('&PARM1' EQ '').C011
         AIF   ('&PARM3' NE '').J001
         MNOTE *,'NO END-OF-JOB ROUTINE ADDRESS SUPPLIED'
         MNOTE *,'PROGRAM WILL ABEND WITH 0C1 IF MANDATORY STATEMENT MI$
               SSING'
.J001    ANOP
         AIF   ('&PARM2' EQ '').I001
         AIF   ('&PARM2'(1,1) NE '(').C031
         AIF   ('&RTN' EQ '').I011
&NAME    DS    0H 0                REPORT ON PRESENCE OF DD STATEMENTS
         LA    R2,&PARM1 ^         GET DCBSW ADDRESS
         AIF   ('&LOOP' EQ '').J01
         LA    R10,&LOOP 0         ESTABLISH LOOP
IOMJ&SYSNDX EQU * 0                RETURN POINT FOR LOOP
.J01     ANOP
&REG     SETC  '&PARM2(1)'
         MVC   LINE13M2,IOPSDDN(R2) MOVE DDNAME TO MESSAGE
         MVC   LINE13M1,LINE13MA ^ ASSUME DDNAME IS MANDATORY
         MVC   LINE13M3,LINE13PR ^ ASSUME DDNAME IS PRESENT
         TM    IOPSSW(R2),IOSWMAND TEST IF DDNAME IS MANDATORY
         BO    *+10 ^              BR IF YES
         MVC   LINE13M1,LINE13OP ^ SHOW DDNAME IS OPTIONAL
         TM    IOPSSW(R2),IOSWPRES TEST IF DDNAME IS PRESENT
         BO    *+10 ^              BR IF YES
         MVC   LINE13M3,LINE13MI ^ SHOW THAT DDNAME IS MISSING
         MVC   5(L'LINE13,&REG),LINE13 MOVE MESSAGE TO LINE
         CBAL  R4,&RTN 0           PERFORM PRINT ROUTINE
         TM    IOPSSW(R2),IOSWMAND TEST IF MANDATORY
         BZ    IOMK&SYSNDX 0       BRANCH IF NOT
         TM    IOPSSW(R2),IOSWPRES TEST IF PRESENT
         BO    IOMK&SYSNDX 0       BRANCH IF YES
         MVC   COMPCODE,COND16 0   SET CONDITION CODE TO 16
         OI    IOML&SYSNDX.+1,X'F0' 0    SET TO BRANCH AT END OF JOB
         MVC   IOMM&SYSNDX.+27(8),IOPSDDN(R2) ADD DD NAME TO WRO
IOMM&SYSNDX WTO 'MANDATORY DATA SET ******** MISSING'
IOMK&SYSNDX EQU * 0
         AIF   ('&LOOP' EQ '').J02
         LA    R2,IOPSLGTH(,R2) 0  POINT AT NEXT DCBSW
         BCT   R10,IOMJ&SYSNDX 0   LOOP BACK TO PROCESS
.J02     ANOP
&RTNE    SETC  '*+2'
         AIF   ('&PARM3' NE '').J03
         MNOTE *,'NO END-OF-JOB ADDRESS SUPPLIED'
         AGO   .J04
.J03     ANOP
&RTNE    SETC  '&PARM3'
.J04     ANOP
IOML&SYSNDX BC 0,&RTNE 0           GO TO END-OF-JOB IF MAND MISSING
         AGO   .I07
.K00     AIF   ('&SUBTYPE' NE 'IOERROR').L00
         AIF   ('&TYPE' EQ 'DEF').K01
         AIF   ('&TYPE' NE '').D01
         MNOTE 16,'INVALID I/O ERROR REQUEST'
         MEXIT
.K01     ANOP
&RTNE    SETC  'PRINT'
&EOJRTNE SETC  'PRINTCDE'
&REG     SETC  'R5'
&LABEL   SETC  'IOERROR'
         AIF   ('&NAME' EQ '').K02
&LABEL   SETC  '&NAME'
.K02     AIF   ('&PARM3' NE '').K03
         MNOTE *,'NO END-OF-JOB ADDRESS SUPPLIED - ''PRINTCDE'' ASSUMD'
         AGO   .K04
.K03     ANOP
&EOJRTNE SETC  '&PARM3'
.K04     AIF   ('&PARM2' NE '').K05
         MNOTE *,'NO PRINT ROUTINE ADDRESS - ''PRINT'' ASSUMED'
         AGO   .K06
.K05     ANOP
&RTNE    SETC  '&PARM2'
.K06     AIF   ('&PARM1' EQ '').K07
         AIF   ('&PARM1'(1,1) NE '(').C031
&REG     SETC  '&PARM1(1)'
         AGO   .K08
.K07     MNOTE *,'NO REGISTER SPECIFIED - R5 ASSUMED'
.K08     ANOP
&LABEL   DS    0H 0                ENSURE ALIGNMENT
         MVC   COMPCODE,COND16 0   SET COMPLETION CODE
        SYNADAF ACSMETH=QSAM 0     CALL ANALYSIS ROUTINE
         MVC   IOML&SYSNDX.+12(86),50(R1) ADD RESULT OF ANALYSIS
        SYNADRLS , 0               RELEASE OS BUFFER
         WTO   MF=(E,IOML&SYSNDX) 0TELL OPERATOR OF ERROR
         MVI   0(&REG),SPCE2AFT 0  ESTABLISH DOUBLE BLANK LINES
         CBAL  R4,&RTNE 0           AND WRITE THEM
         MVC   5(98,&REG),IOMM&SYSNDX 0 MOVE IN ERROR MESSAGE
         CBAL  R4,&RTNE 0          WRITE ERROR MESSAGE
        SUBOUT RETURN=&EOJRTNE 0   TERMINATE JOB
         SPACE 1
IOML&SYSNDX DS 0F
         DC    AL2(102),H'0'
IOMM&SYSNDX DC CL98'I/O ERROR - '
         MEXIT
.L00     AIF   ('&SUBTYPE' NE 'PUTM').M00
.L01     ANOP
         AIF   ('&PARM1' EQ '').C011
&REG     SETC  'R1'
         AIF   ('&PARM2' EQ '').C021
         AIF   ('&PARM2'(1,1) NE '(').C031
&REG     SETC  '&PARM2(1)'
         AGO   .C021
.M00     AIF   ('&SUBTYPE' EQ 'GETM').L01
         MEND
         EJECT
         MACRO
&NAME    SUBIN &SAVE=,&PREFIX=
         GBLA  &SUBINC
         LCLA  &N,&S
         LCLC  &R,&P,&PP
&SUBINC SETA   &SUBINC+1
&NAME    DS    0H
&N       SETA  N'&SAVE
         AIF   (&N GT 0).C1
         MEXIT
.C1      ANOP
&P       SETC  '&PREFIX'
         AIF   ('&P' EQ '').C2
&PP      SETC  '&P.SAVE'
         AGO   .C3
.C2      ANOP
&PP      SETC  '$&SUBINC'
.C3      ANOP
&S       SETA  &S+1
         AIF   (&S GT &N).C4
         ST    &SAVE(&S),&PP&SAVE(&S) 0      PRESERVE REGISTER
         AIF   ('&SYSECT' NE 'BUDGIE3').C3
         AIF   ('&SAVE(&S)' NE 'R4').C3
         ST    R11,&PP.R11 ^       PRESERVE REGISTER 11
         AGO   .C3
.C4      ANOP
         B     &PP.XIT 0           BRANCH OVER SAVE AREAS
&S       SETA  0
.C5      ANOP
&S       SETA  &S+1
         AIF   (&S GT &N).C6
&PP&SAVE(&S) DS F 0                SAVE AREA
         AIF   ('&SYSECT' NE 'BUDGIE3').C5
         AIF   ('&SAVE(&S)' NE 'R4').C5
&PP.R11  DS    F ^                 SAVE AREA FOR REGISTER 11
         AGO   .C5
.C6      ANOP
&PP.XIT  EQU   * 0                 ROUTINE EXIT
         MEND
         EJECT
         MACRO
&NAME   SUBOUT &RESTORE=,&PREFIX=,&RETURN=
         GBLA  &SUBINC
         LCLA  &N,&S
         LCLC  &R,&P,&PP,&B
         AIF   ('&NAME' EQ '').NONAME
&NAME    DS    0H 0
.NONAME  ANOP
&N       SETA  N'&RESTORE
         AIF   (&N NE 0).C3
.C1      ANOP
&B       SETC  'R4'
         AIF   ('&RETURN' EQ '').C2
         AIF   ('&RETURN'(1,1) NE '(').C11
&B       SETC  '&RETURN(1)'
         AGO   .C2
.C11     ANOP
&B       SETC  '&RETURN'
         B     &B 0                RETURN TO CALLER
         MEXIT
.C2      BR    &B 0                RETURN TO CALLER
         MEXIT
.C3      ANOP
&P       SETC  '&PREFIX'
         AIF   ('&P' EQ '').C4
&PP      SETC  '&P.SAVE'
         AGO   .C5
.C4      ANOP
&PP      SETC  '$&SUBINC'
.C5      ANOP
&S       SETA  &S+1
         AIF   (&S GT &N).C1
         L     &RESTORE(&S),&PP&RESTORE(&S) 0     RESTORE REGISTER
         AIF   ('&SYSECT' NE 'BUDGIE3').C5
         AIF   ('&RESTORE(&S)' NE 'R4').C5
         L     R11,&PP.R11 ^       RESTORE REGISTER 11
         AGO   .C5
         MEND
         EJECT
         MACRO
&NAME    SUBLR &R,&S
         GBLA  &SUBINC
         LCLC  &P,&PP
&P       SETC  '&R'
         AIF   ('&S' EQ '').A01
&P       SETC  '&S'
.A01     ANOP
&PP      SETC  '$&SUBINC'
&NAME    L     &R,&PP&P ^          RESTORE REGISTER FRO MSUBIN AREA
         MEND
         SPACE 5
         MACRO
&NAME    ADDR  &FLD,&C,&T
         LCLC  &R
&R       SETC  'R1'
         AIF   ('&T' EQ '').A01
&R       SETC  '&T'
.A01     ANOP
&NAME    L     &R,VBUDG3&C 0       GET ADDRESS OF CSECT CONTAINING FLD
         LA    &R,&FLD.-BUDGIE3&C.(,&R) POINT REGISTER AT FIELD
         MEND
         SPACE 5
         MACRO
&NAME    PTR   &FLD1,&FLD2
         LCLC  &NME
&NME     SETC '&NAME'
         AIF   ('&FLD1' EQ '').A00
&NME     SR    R6,R6 ^             ZEROISE WORK REGISTER
&NME     SETC  ' '
         IC    R6,&FLD1 ^          GET POSN OF FIELD
         BCTR  R6,0 ^              DECREMENT POSN TO DISPLACEMENT
         A     R6,SYSUT1+IOPSRECA ^ADD REC ADDR TO POINT AT FIELD
.A00     AIF   ('&FLD2' EQ '').A01
&NME     SR    R1,R1 ^             ZEROISE WORK REGISTER
         IC    R1,&FLD2 ^          RETRIEVE LENGTH OF FIELD
         BCTR  R1,0 ^              DECREMENT FOR EXECUTE
.A01     ANOP
         MEND
         EJECT
         MACRO
&NAME    LINE  &LNE,&DISP,&REG,&S=,&P=
         LCLC  &D,&R,&L
         LCLC  &NAME1
&NAME1   SETC  '&NAME'
&D       SETC  '5'
         AIF   ('&DISP' EQ '').C1
&D       SETC  '&DISP'
.C1      ANOP
&R       SETC  'R5'
         AIF   ('&REG' EQ '').C3
         AIF   ('&REG'(1,1) EQ '(').C02
         MNOTE 4,'INVALID REGISTER SPECIFICATION'
         MEXIT
.C02     ANOP
&R       SETC   '&REG(1)'
.C3      AIF   ('&LNE' EQ '').C31
&L       SETC  'L'''
&NAME    MVC   &D.(&L&LNE,&R),&LNE 0MOVE MESSAGE TO LINE
&NAME1   SETC  ' '
.C31     AIF   ('&S' EQ '').C5
 AIF ('&S' EQ '0' OR '&S' EQ '1' OR '&S' EQ '2' OR '&S' EQ '3').C4
         AIF   ('&S' EQ 'P').C32
         MNOTE 4,'INVALID SPACE SPECIFICATION'
         AGO   .C5
.C32     ANOP
&NAME1   MVI   0(&R),PAGESKIP 0    ESTABLISH PAGE SKIP
&NAME1   SETC  ' '
         AGO   .C5
.C4      ANOP
&NAME1   MVI   0(&R),SPCE&S.AFT 0  SET CARRIAGE SPACING
&NAME1   SETC  ' '
.C5      AIF   ('&P' EQ '').C6
         AIF   ('&P' EQ 'N').C7
         AIF   ('&P' EQ 'Y').C6
         AIF   ('&P' EQ 'Z').C51
         AIF   ('&P' EQ 'L').C8
         MNOTE 4,'INVALID PRINT REQUEST'
         AGO   .C7
.C8      ANOP
&NAME1   CBAL  R4,PRINTLOG 0       PRINT LINE OF  LOG STATUS REPORT
&NAME1   SETC  ' '
         AGO   .C7
.C51     ANOP
&NAME1   CBAL  R4,PRINTBBL 0       PRINT LINE OF B/B REPORT
&NAME1   SETC  ' '
         AGO   .C7
.C6      ANOP
         AIF   ('&SYSECT' NE 'BUDGIE3C').C61
&NAME1   CBAL  R4,PRINT3C ^        PRINT LINE OF SYSPRINT
&NAME1   SETC  ' '
         AGO   .C7
.C61     AIF   ('&SYSECT' NE 'BUDGIE3G').C62
&NAME1   CBAL  R4,PRINT3G ^        PRINT LINE OF SYSPRINT
&NAME1   SETC  ' '
         AGO   .C7
.C62     AIF   ('&SYSECT' NE 'BUDGIE3H').C63
&NAME1   CBAL  R4,PRINT3H ^        PRINT LINE OF SYSPRINT
&NAME1   SETC  ' '
         AGO   .C7
.C63     ANOP
&NAME1   CBAL  R4,PRINT 0          PRINT LINE TO SYSPRINT
&NAME1   SETC  ' '
.C7      ANOP
         MEND
         EJECT
         MACRO
&NAME NUMERIC  &FLD,&LEN,&SIGNED
         LCLC  &R
         LCLC  &L
         AIF   ('&FLD'(1,1) NE '(').C1
&R       SETC  '&FLD(1)'
&NAME    LA    R1,0(,&R) 0         POINT R1 AT FIELD
         AGO   .C2
.C1      ANOP
&NAME    LA    R1,&FLD 0           POINT R1 AT FIELD
.C2      AIF   ('&LEN' EQ '').C3
         LA    R15,&LEN 0          SET LENGTH IN R15
         AGO   .C4
.C3      ANOP
&L       SETC  'L'''
         LA    R15,&L&FLD ^        SET LENGTH IN  R15
.C4      AIF   ('&SYSECT' NE 'BUDGIE3F').C5
         AIF   ('&SIGNED' NE 'SIGNED').C8
         CBAL  R4,NUMERCSF ^       TEST FIELD FOR NUMERIC
         MEXIT
.C8      ANOP
         CBAL  R4,NUMERICF         INVOKE SUBROUTINE
         MEXIT
.C5      AIF   ('&SYSECT' NE 'BUDGIE3C').C6
         AIF   ('&SIGNED' NE 'SIGNED').C9
         CBAL  R4,NUMERCSC ^       TEST FIELD FOR NUMERIC
         MEXIT
.C9      CBAL  R4,NUMERICC ^       TEST FIELD FOR NUMERIC
         MEXIT
.C6      AIF   ('&SYSECT' EQ 'BUDGIE3H').C11
         AIF   ('&SYSECT' EQ 'BUDGIE3K').C11
         AGO   .C7
.C11     ANOP
         AIF   ('&SIGNED' NE 'SIGNED').C10
         CBAL  R4,NUMERCSH ^       TEST FIELD FOR NUMERIC
         MEXIT
.C10     CBAL  R4,NUMERICH ^       TEST FIELD FOR NUMERIC
         MEXIT
.C7      CBAL  R4,NUMERIC ^        TEST FIELD FOR NUMERIC
         MEND
         EJECT
         MACRO
&NAME    CBAL  &R,&ROUTINE         PERFORM SUB-ROUTINE
         LCLC  &CSECT,&ROOT,&C
         LCLC  &NAME1
&NAME1   SETC  '&NAME'
&C       SETC  'BUDGIE3A'
         AIF   ('&ROUTINE'(1,4) EQ 'WORK').C
&C       SETC  'BUDGIE3B'
         AIF   ('&ROUTINE' EQ 'TESTINTL').SETH
         AIF   ('&ROUTINE'(1,4) EQ 'TEST').C
         AIF   ('&ROUTINE' EQ 'NUMERIC').C
         AIF   ('&ROUTINE' EQ 'NUMERICS').C
         AIF   ('&ROUTINE'(1,5) EQ 'UT458').C
         AIF   ('&ROUTINE' EQ 'UNDRSCOR').C
         AIF   ('&ROUTINE' EQ 'ADDCLOS').C
         AIF   ('&ROUTINE' EQ 'SFVERIFY').C
         AIF   ('&ROUTINE' EQ 'SETINDS').C
         AIF   ('&ROUTINE' EQ 'COMPARE').C
.SETH    ANOP
&C       SETC  'BUDGIE3K'
         AIF   ('&ROUTINE' EQ 'CCMS33').C
         AIF   ('&ROUTINE' EQ 'CCMS34').C
         AIF   ('&ROUTINE' EQ 'CCMS36').C
         AIF   ('&ROUTINE' EQ 'CCMS37').C
&C       SETC  'BUDGIE3H'
         AIF   ('&ROUTINE' EQ 'TESTINTL').C
         AIF   ('&ROUTINE' EQ 'NUMERICH').C
         AIF   ('&ROUTINE' EQ 'CCMS20').C
         AIF   ('&ROUTINE' EQ 'CCMS21').C
         AIF   ('&ROUTINE' EQ 'CCMS30').C
         AIF   ('&ROUTINE' EQ 'CCMS31').C
         AIF   ('&ROUTINE' EQ 'CCMS32').C
         AIF   ('&ROUTINE' EQ 'CCMS40').C
         AIF   ('&ROUTINE' EQ 'CCMS41').C
&C       SETC  'BUDGIE3C'
         AIF   ('&ROUTINE'(1,4) EQ 'CCMS').C
         AIF   ('&ROUTINE' EQ 'CCREAD').C
&C       SETC  'BUDGIE3H'
         AIF   ('&ROUTINE'(1,4) EQ 'PARM').C
         AIF   ('&ROUTINE'(1,4) EQ 'INIT').C
&C       SETC  'BUDGIE3M'
         AIF   ('&ROUTINE' EQ 'CCLINK00').C
&C       SETC  'BUDGIE3D'
         AIF   ('&ROUTINE' EQ 'OPEN').C
         AIF   ('&ROUTINE' EQ 'CLOSE').C
         AIF   ('&ROUTINE' EQ 'TIOTSCAN').C
         AIF   ('&ROUTINE' EQ 'READUT1').C
         AIF   ('&ROUTINE' EQ 'READIN').C
         AIF   ('&ROUTINE' EQ 'PRINT').C
         AIF   ('&ROUTINE' EQ 'PRINTBBL').C
         AIF   ('&ROUTINE' EQ 'HEADBB').C
         AIF   ('&ROUTINE' EQ 'PRINTLOG').C
         AIF   ('&ROUTINE' EQ 'HEADLOG').C
         AIF   ('&ROUTINE' EQ 'BLKSZRTN').C
         AIF   ('&ROUTINE' EQ 'UT1LRECL').C
         AIF   ('&ROUTINE' EQ 'UT2LRECL').C
         AIF   ('&ROUTINE' EQ 'WRKLRECL').C
         AIF   ('&ROUTINE' EQ 'PUTUT2').C
         AIF   ('&ROUTINE' EQ 'PUTSUSP').C
         AIF   ('&ROUTINE' EQ 'PUTDLETE').C
         AIF   ('&ROUTINE' EQ 'PUTMOVE').C
         AIF   ('&ROUTINE' EQ 'PUTLOG').C
         AIF   ('&ROUTINE' EQ 'GETLOG').C
         AIF   ('&ROUTINE' EQ 'GETSUSP').C
         AIF   ('&ROUTINE' EQ 'READLIN').C
         AIF   ('&ROUTINE' EQ 'ISRANDM').C
         AIF   ('&ROUTINE' EQ 'ISOPEN').C
         AIF   ('&ROUTINE' EQ 'ISCLOSE').C
         AIF   ('&ROUTINE' EQ 'PUTDUP').C
         AIF   ('&ROUTINE' EQ 'PUTINTRD').C
&C       SETC  'BUDGIE3E'
         AIF   ('&ROUTINE'(1,5) EQ 'BATCH').C
&C       SETC  'BUDGIE3F'
         AIF   ('&ROUTINE'(1,4) EQ 'URTN').C
         AIF   ('&ROUTINE' EQ 'PPLPL').C
         AIF   ('&ROUTINE' EQ 'PPLLPL').C
         AIF   ('&ROUTINE' EQ 'PPPLLPL').C
         AIF   ('&ROUTINE' EQ 'PPPLPL').C