         MACRO
&NAME    WRITE &X
         LCLA  &L
&L       SETA  K'&X
         AIF   ('&NAME' NE '').M1
         MNOTE 16,'NO NAME SUPPLIED'
         MEXIT
.M1      AIF   (K'&X LE 2).M2
         MNOTE 16,'OPERAND EXCEEDS TWO CHARACTERS'
.M2      ANOP
         DS    0H
&NAME    BC    0,DETAIL&X
         MVI   &NAME.+1,X'F0'
         OPEN  (PRINT&X,(OUTPUT))
HEAD&X   MVC   LINECT&X,ZERO
         MVI   CC&X,X'8B'
         MVC   LINE&X,BLANKLNE
         PUT   PRINT&X,CC&X
         MVI   CC&X,X'11'
         AP    PAGECT&X,ONE
         MVC   LINE&X.+57(18),HEAD0
         MVC   LINE&X.+5(9),DATEFLD
         PUT   PRINT&X,CC&X
         MVC   LINE&X,BLANKLNE
         MVC   LINE&X.+5(6),REPORT
         MVC   LINE&X.+12(&L),=C'&X'
         MVC   LINE&X.+125(4),PAGEEDIT
         ED    LINE&X.+125(4),PAGECT&X
         MVC   LINE&X.+122(4),PAGEHEAD
         MVC   LINE&X.+40(53),HEAD1&X
         PUT   PRINT&X,CC&X
SW&X     BC    0,BR&X
         OI    SW&X.+1,X'F0'
         MVI   CC&X,X'09'
         B     BR2&X
BR&X     MVI   CC&X,X'11'
BR2&X    EQU   *
         MVC   LINE&X,HEAD2&X
         PUT   PRINT&X,CC&X
         MVI   CC&X,X'09'
DETAIL&X CP    LINECT&X,FIFTY5
         BNL   HEAD&X
         AP    LINECT&X,ONE
         MVC   LINE&X,LINE
         PUT   PRINT&X,CC&X
         MVC   LINE,BLANKLNE
         BR    R4
PRINT&X  DCB   DSORG=PS,MACRF=PM,RECFM=FB,LRECL=133,                   *
               DDNAME=WRITE&X
CC&X     DS    0CL133
         DC    X'09'
LINE&X   DC    CL132' '
LINECT&X DC    PL2'0'
PAGECT&X DC    PL2'0'
         MEND
UT446    CSECT
         SPACE 1
         PGMIN USING=(R13,R12,R7,R6)
         LA    R8,2048(R6)
         LA    R8,2048(R8)
         DROP  R13,R12,R7,R6
         USING SAVEFLD,R13,R12,R7,R6,R8
         SPACE 1
         OPEN  (SYSUT1,(INPUT))
         OPEN  (SYSUT2,(OUTPUT))
         OPEN  (SYSUT3,(OUTPUT))
         OPEN  (SNAPDUMP,(OUTPUT))
         L     R15,DATEADDR
         LA    R1,ADATEFLD
         BALR  R14,R15
         L     R1,4(R13)
         L     R1,24(R1)
         L     R1,0(R1)
         LH    R11,0(R1)
         LTR   R11,R11
         BZ    ENDPARM
         LA    R10,2(R1)
         CLC   0(7,R10),=C'REPORTS'
         BNE   ENDPARM
         MVI   REPORTS1+1,X'00'
         MVI   REPORTS2+1,X'00'
         MVI   REPORTS3+1,X'00'
ENDPARM  EQU   *
REPORTS1 BC    15,READ
         BAL   R4,A1
         BAL   R4,A2
         BAL   R4,A3
         BAL   R4,A4
         BAL   R4,A5
         BAL   R4,A6
         BAL   R4,A7
         BAL   R4,A8
         BAL   R4,A9
         BAL   R4,B1
         BAL   R4,B2
         BAL   R4,B3
         BAL   R4,B4
         EJECT
READ     EQU   *
         GET   SYSUT1,RECORD1
         LA    R4,READ
         CLC   INPUT(30),SPACES
         BE    WRITE3
         CLC   INPUT+20(12),MEMBER
         BNE   READ2
         BAL   R4,WRITE3
         MVC   PROCNME1,INPUT+33
         MVC   PROCNME2,INPUT+33
         MVC   STEPNO,ZERO
        STIMER TASK,ERRORTME,DINTVL=TYMLIMIT
         B     READ
READ2    EQU   *
         CLC   INPUT+20(3),=C'//*'
         BE    READ
         CLC   INPUT+20(2),SLASH
         BNE   WRITE3
         LA    R4,EXECKEY
         SCAN  INPUT+22,=C' EXEC ',YES=WRITE3,REG=R10,LIMIT=INPUT+92
         LA    R4,READ
         SCAN  INPUT+22,=C' PROC ',YES=WRITE3,REG=R10,LIMIT=INPUT+92
         LA    R4,READ3
         SCAN  INPUT+22,=C' DD ',YES=WRITE3,REG=R10,LIMIT=INPUT+92
         CLI   INPUT+22,C' '
         BNE   ERROR
READSW   BC    15,READ
         LA    R10,INPUT+23
         B     DDKEY3
READ3    MVI   WRITE3SW+1,X'00'
         MVI   READSW+1,X'00'
         B     DDCARD
         EJECT
EXECKEY  EQU   *
         AP    STEPNO,ONE
         MVC   UNPACKED,EDITMASK
         ED    UNPACKED,STEPNO
         OI    UNPACKED+3,X'F0'
         MVC   STEPNO1,UNPACKED+2
         MVC   STEPNO2,UNPACKED+2
         MVI   STEPNME2,C' '
         MVC   STEPNME2+1(15),STEPNME2
         MVC   KEYWORD,PGM
         BAL   4,KEYFIND
         B     *+8
         B     ERROR
         LA    10,4(10)
         LA    11,9(10)
         CLI   0(10),C'*'
         BNE   EXECKEY2
         LA    9,7(0)
         B     EXECKEY3
EXECKEY2 BAL   4,GETDELIM
         B     EXECKEY4
         CR    R10,R11
         BE    ERROR
EXECKEY3 BAL   R4,CHECKEX8
         EX    9,MOVEPGM1
         EX    9,MOVEPGM2
EXECKEY7 LA    10,INPUT+22
         LA    11,9(10)
         CLI   INPUT+22,C' '
         BE    WRITE2
         BAL   4,GETDELIM
         B     ERROR
         CLI   DELIMITR,C' '
         BNE   ERROR
         BAL   R4,CHECKEX8
         EX    9,MOVESTP1
         EX    9,MOVESTP2
WRITE2   PUT   SYSUT2,RECORD2
         CLC   PROGRAM1,=C'IERRCO00'
         BNE   EXECKEY8
         SCAN  15(R10),=C'CORE=',REG=R10,LIMIT=INPUT+92
         B     EXECKEY8
         LA    R10,5(R10)
         BAL   R4,GETDELIM
         B     ERROR
         BCTR  R9,0
         BAL   R4,CHECKEX5
         EX    R9,MOVECORE
         LA    R4,EXECKEY8
         B     IERRCO00
EXECKEY8 DS    0H
         MVI   STEPNME1,C' '
         MVC   STEPNME1+1(17),STEPNME1
         B     READ
         SPACE 1
MOVEPGM1 MVC   PROGRAM1(0),0(R10)
MOVEPGM2 MVC   PROGRAM2(0),0(R10)
MOVESTP1 MVC   STEPNME1(0),0(R10)
MOVESTP2 MVC   STEPNME2(0),0(R10)
MOVECORE MVC   SORTCORE(0),0(R10)
         SPACE 1
EXECKEY4 EQU   *
         LA    R9,8
         LR    R11,R10
         LA    R10,8(R10)
EXECKEY5 BCTR  R10,0
         CLI   0(R10),X'50'
         BE    EXECKEY6
         BCT   R9,EXECKEY5
         B     ERROR
EXECKEY6 MVC   PROGRAM1,0(R11)
         MVC   PROGRAM2,0(R11)
         B     EXECKEY7
         EJECT
DDCARD   EQU   *
         MVI   DDNAME,C' '         CLEAR DDNAME
         MVC   DDNAME+1(51),DDNAME   AND DSNAME
         MVI   MEMBR,C' '          CLEAR REST
         MVC   MEMBR+1(129),MEMBR    OF RECORD3
         CLI   INPUT+22,C' '
         BE    DDKEY1
         LA    10,INPUT+22
         LA    11,INPUT+31
         BAL   4,GETDELIM
         B     ERROR
         CLI   DELIMITR,C' '
         BNE   ERROR
         MVC   DDNAME,SPACES
         BAL   R4,CHECKEX8
         EX    9,MOVEDDN
         AR    R10,R9
         LA    R10,1(R10)
         CLC   0(4,R10),=C' DD '
         BNE   *-10
DDKEY1   EQU   *
         LA    R10,3(R10)
DDKEY2   EQU   *
         LA    R10,1(R10)
DDKEY3   EQU   *
         CLI   0(R10),C' '
         BE    DDKEY2
IDENTIFY EQU   *
         CLC   0(2,R10),=C'* '
         BE    DASTRSK
         CLI   0(R10),C','
         BNE   IDENT1
         LA    R10,1(R10)
         B     IDENTIFY
         LA    R11,INPUT+92
         CR    R10,R11
         BNL   READ
IDENT1   EQU   *
         CLI   0(R10),C' '
         BE    READ
         CLC   0(4,R10),=C'DSN='
         BE    DSNKEY
         CLC   0(7,R10),=C'DSNAME='
         BE    DSNMEKEY
         CLC   0(7,R10),=C'SYSOUT='
         BE    SYSOUT
         CLC   0(5,R10),=C'DISP='
         BE    DISP
         CLC   0(6,R10),=C'SPACE='
         BE    SPACE
         CLC   0(5,R10),=C'UNIT='
         BE    UNIT
         CLC   0(4,R10),=C'VOL='
         BE    VOL
         CLC   0(7,R10),=C'VOLUME='
         BE    VOLUME
         CLC   0(5,R10),=C'DUMMY'
         BE    DUMMY
         CLC   0(4,R10),=C'DATA'
         BE    DDATA
         CLC   0(5,R10),=C'DYNAM'
         BE    DDYNAM
         CLC   0(7,R10),=C'DDNAME='
         BE    DDDNAME
         CLC   0(4,R10),=C'AFF='
         BE    AFF
         CLC   0(4,R10),=C'SEP='
         BE    SEP
         CLC   0(6,R10),=C'SPLIT='
         BE    SSPLIT
         CLC   0(9,R10),=C'SUBALLOC='
         BE    SSUBALOC
         MVI   DCBSW+1,X'F0'
         MVI   DCBSW2+1,X'00'
         MVI   DCBSW3+1,X'F0'
         CLC   0(5,R10),=C'DCB=('
         BE    DCB
         CLC   0(4,R10),=C'DCB=('
         BE    DCB1
         CLC   0(6,R10),=C'LABEL='
         BE    LABEL
         LA    R11,INPUT+92
         BAL   R4,GETDELIM
         B     ERROR
         MVI   DCBSW+1,X'00'
         MVI   DCBSW2+1,X'F0'
         MVI   DCBSW3+1,X'00'
         CLC   0(6,R10),=C'RECFM='
         BE    DRECFM
         CLC   0(6,R10),=C'LRECL='
         BE    DLRECL
         CLC   0(8,R10),=C'BLKSIZE='
         BE    DBLKSIZE
         CLC   0(6,R10),=C'OPTCD='
         BE    DOPTCD
         CLC   0(6,R10),=C'BUFNO='
         BE    DBUFNO
         CLC   0(6,R10),=C'DSORG='
         BE    DDSORG
         CLC   0(7,R10),=C'CYLOFL='
         BE    DCYLOFL
         CLC   0(7,R10),=C'KEYLEN='
         BE    DKEYLEN
         CLC   0(4,R10),=C'RKP='
         BE    DRKP
         LA    R4,SPACE5
         TM    LASTPARM,BIT0
         BO    IDENT4
         TM    LASTPARM,BIT1
         BZ    IDENT11
         BCTR  R10,0
         LA    R4,SPACE10
         B     IDENT4
IDENT11  TM    LASTPARM,BIT2
         BZ    IDENT12
         BCTR  R10,0
         LA    R4,DISP4
         B     IDENT4
IDENT12  EQU   *
         BAL   R4,SNAP
         LA    R11,INPUT+92
         BAL   R4,GETDELIM
         B     ERROR
         LA    R10,1(R11)
         B     IDENTIFY
*
*        TESTS IN HERE
*
IDENT2   LA    R11,INPUT+92
         BAL   R4,GETDELIM
         B     ERROR
         LA    R10,1(R11)
         MVC   ENDOCARD,DELIMITR
         CLI   DELIMITR,C' '
         BE    READ
         CLI   DELIMITR,C','
         BE    IDENTIFY
         B     *+8
IDENT3   LA    R10,1(R10)
         CLI   0(R10),C' '
         BE    READ
         CLI   0(R10),C'A'
         BNL   IDENTIFY
         CLI   0(R10),C','
         BNE   IDENT3
         LA    R10,1(R10)
         B     IDENTIFY
         SPACE 1
IDENT4   EQU   *
         MVI   LASTPARM,X'00'
         BR    R4
         EJECT
DSNMEKEY LA    10,3(10)
DSNKEY   LA    10,4(10)
         LA    11,45(10)
         BAL   4,GETDELIM
         B     ERROR
         BAL   R4,CHECK44
         EX    9,MOVEDSN
         MVC   ENDOCARD,DELIMITR
         CLI   DELIMITR,C' '
         BE    READ
         CLI   DELIMITR,C','
         LA    10,1(11)
         BE    IDENTIFY
         CLI   DELIMITR,C'('
         BNE   ERROR
         LA    11,9(10)
         BAL   4,GETDELIM
         B     DSNKEY2
         CLI   DELIMITR,C')'
         BNE   ERROR
         CLC   0(5,10),INDEX
         BE    ISAM
         CLC   0(5,10),PRIME
         BE    ISAM
         CLC   0(6,10),OVFLOW
         BNE   GDGTST
ISAM     BAL   R4,CHECKEX6
         EX    9,MOVEISAM
         B     DSNEND
GDGTST   CLI   0(10),C'+'
         BE    GDGYES
         CLI   0(10),C'-'
         BE    GDGYES
         CLI   0(10),C'0'
         BL    GDGYES
         BCTR  10,0
         MVI   0(10),X'55'
         LA    9,1(9)
GDGYES   BAL   R4,CHECK10
         EX    9,MOVEGDG
DSNEND   LA    R10,1(R11)
         MVI   ENDOCARD,C' '
         CLI   0(R10),C' '
         BE    READ
         MVI   ENDOCARD,C','
         CLI   0(R10),C','
         LA    R10,1(R10)
         BE    IDENTIFY
         B     ERROR
MOVEDDN  MVC   DDNAME(0),0(10)
MOVEDSN  MVC   DSNAME(0),0(10)
MOVEISAM MVC   ISAMUSE(0),0(10)
MOVEGDG  MVC   RELGENNO(0),0(10)
         SPACE 1
DSNKEY2  EQU   *
         LA    R9,8
         LA    R11,8(R10)
DSNKEY3  BCTR  R11,0
         CLI   0(R11),X'50'
         BE    DSNKEY4
         BCT   R9,DSNKEY3
         B     ERROR
DSNKEY4  LA    R11,INPUT+92
         BAL   R4,GETDELIM
         B     ERROR
         LA    R9,7
         EX    R9,MOVEGDG
         LA    R10,1(R11)
         B     IDENTIFY
         TITLE 'ANALYSE DCB PARAMETER'
DCB      EQU   *
         LA    R10,1(R10)
         MVI   DCBSW+1,X'00'
         MVI   DCBSW3+1,X'00'
DCB1     EQU   *
         LA    R10,4(R10)
         B     *+8
DCBSW    BC    0,IDENTIFY
         CLI   0(R10),C')'
         BNE   DCB2
         LA    R10,1(R10)
         B     IDENTIFY
DCB2     CLI   0(R10),C','
         BNE   DCB3
         LA    R10,1(R10)
         B     DCBSW
DCB3     CLI   0(R10),C' '
         BE    READ
DCBSW2   BC    0,DCB4
         MVI   DCBSW2+1,X'F0'
         LA    R11,INPUT+92
         BAL   R4,GETDELIM
         B     ERROR
         LR    R9,R11
         SCAN  0(R10),=C'=',LIMIT=INPUT+92,REG=R11
         BC    0,*+4
         CR    R9,R11
         BNL   DCB4
         LR    R11,R9
         SR    R9,R10
         BCTR  R9,0
         BAL   R4,CHECK19
         EX    R9,MVEREFBK
         LA    R10,2(R10)
         AR    R10,R9
DCBSW3   BC    0,IDENTIFY
DCB4     EQU   *
         LA    R11,INPUT+92
         BAL   R4,GETDELIM
         B     ERROR
         CLC   0(6,R10),=C'RECFM='
         BE    DRECFM
         CLC   0(6,R10),=C'LRECL='
         BE    DLRECL
         CLC   0(8,R10),=C'BLKSIZE='
         BE    DBLKSIZE
         CLC   0(6,R10),=C'OPTCD='
         BE    DOPTCD
         CLC   0(6,R10),=C'BUFNO='
         BE    DBUFNO
         CLC   0(6,R10),=C'DSORG='
         BE    DDSORG
         CLC   0(7,R10),=C'CYLOFL='
         BE    DCYLOFL
         CLC   0(7,R10),=C'KEYLEN='
         BE    DKEYLEN
         CLC   0(4,R10),=C'RKP='
         BE    DRKP
         CLC   0(5,R10),=C'BUFL='
         BE    DCBBYPAS
         CLC   0(6,R10),=C'EROPT='
         BE    DCBBYPAS
         LA    R10,0(R11)
         CLI   0(R10),C'('
         BE    ERROR
         BAL   R4,SNAPDCB
         B     DCBSW
         SPACE 1
DCBBYPAS EQU   *
         LA    R10,0(R11)
         B     DCBSW
         SPACE 5
DRECFM   LA    R10,6(R10)
         S     R9,=F'6'
         CLI   1(R10),X'50'
         BNE   DRECFM1
         LA    R9,1
DRECFM1  EQU   *
         BAL   R4,CHECKEX3
         EX    R9,MVERECFM
         LA    R10,0(R11)
         B     DCBSW
DLRECL   LA    R10,6(R10)
         S     R9,=F'6'
         BAL   R4,CHECKEX4
         EX    R9,MVELRECL
         LA    R10,0(R11)
         B     DCBSW
DBLKSIZE LA    R10,8(R10)
         S     R9,=F'8'
         CLI   0(R10),X'50'
         BNE   DBLKSIZ1
         LA    R9,2
DBLKSIZ1 EQU   *
         BAL   R4,CHECKEX4
         EX    R9,MVEBLKSZ
         LA    R10,0(R11)
         B     DCBSW
DOPTCD   LA    R10,6(R10)
         S     R9,=F'6'
         BAL   R4,CHECKEX6
         EX    R9,MVEOPTCD
         LA    R10,0(R11)
         B     DCBSW
DBUFNO   LA    R10,6(R10)
         S     R9,=F'6'
         BAL   R4,CHECKEX2
         EX    R9,MVEBUFNO
         LA    R10,0(R11)
         B     DCBSW
DDSORG   LA    R10,6(R10)
         S     R9,=F'6'
         BAL   R4,CHECKEX3
         EX    R9,MVEDSORG
         LA    R10,0(R11)
         B     DCBSW
DCYLOFL  LA    R10,7(R10)
         S     R9,=F'7'
         BAL   R4,CHECKEX2
         EX    R9,MVECYLOF
         LA    R10,0(R11)
         B     DCBSW
DKEYLEN  LA    R10,7(R10)
         S     R9,=F'7'
         BAL   R4,CHECKEX3
         EX    R9,MVEKEYLN
         LA    R10,0(R11)
         B     DCBSW
DRKP     LA    R10,4(R10)
         S     R9,=F'4'
         BAL   R4,CHECKEX3
         EX    R9,MVERKP
         LA    R10,0(R11)
         B     DCBSW
         SPACE 1
MVERECFM MVC   RECFM(0),0(R10)
MVELRECL MVC   LRECL(0),0(R10)
MVEBLKSZ MVC   BLKSIZE(0),0(R10)
MVEOPTCD MVC   OPTCD(0),0(R10)
MVEBUFNO MVC   BUFNO(0),0(R10)
MVEDSORG MVC   DSORG(0),0(R10)
MVECYLOF MVC   CYLOFL(0),0(R10)
MVEKEYLN MVC   KEYLEN(0),0(R10)
MVERKP   MVC   RKP(0),0(R10)
MVEREFBK MVC   DCBREFBK(0),0(R10)
         TITLE 'ANALYSE LABEL PARAMETER'
LABEL    EQU   *
         LA    R10,6(R10)
         CLI   0(R10),C'('
         BE    LABEL2
         CLC   0(5,R10),=C'EXPDT'
         BE    LABEL1
         CLC   0(5,R10),=C'RETPD'
         BE    LABEL1
         LA    R11,3(R10)
         BAL   R4,GETDELIM
         B     ERROR
         BAL   R4,CHECKEX2
         EX    R9,MVELBLNO
         LA    R10,1(R11)
         B     IDENTIFY
LABEL1   LA    R10,6(R10)
         LA    R11,6(R10)
         BAL   R4,GETDELIM
         B     ERROR
         BAL   R4,CHECKEX5
         EX    R9,MVELBDTE
         LA    R10,0(R11)
         B     IDENTIFY
LABEL2   LA    R10,1(R10)
         CLI   0(R10),C','
         BE    LABEL3
         CLC   0(5,R10),=C'EXPDT'
         BE    LABEL7
         CLC   0(5,R10),=C'RETPD'
         BE    LABEL7
         LA    R11,3(R10)
         BAL   R4,GETDELIM
         B     ERROR
         BAL   R4,CHECKEX2
         EX    R9,MVELBLNO
         LA    R10,0(R11)
LABEL3   LA    R10,1(R10)
         CLI   0(R10),C','
         BE    LABEL4
         CLC   0(5,R10),=C'EXPDT'
         BE    LABEL7
         CLC   0(5,R10),=C'RETPD'
         BE    LABEL7
         LA    R11,INPUT+92
         BAL   R4,GETDELIM
         B     ERROR
         BAL   R4,CHECKEX3
         EX    R9,MVELBTYP
         LA    R10,0(R11)
         CLI   0(R10),C')'
         BNE   LABEL4
         LA    R10,1(R10)
         B     IDENTIFY
LABEL4   LA    R10,1(R10)
         CLI   0(R10),C','
         BE    LABEL5
         CLC   0(5,R10),=C'RETPD'
         BE    LABEL7
         CLC   0(5,R10),=C'EXPDT'
         BE    LABEL7
         MVC   LABLPSWD,0(R10)
         LA    R10,8(R10)
         CLI   0(R10),C')'
         BNE   LABEL5
         LA    R10,1(R10)
LABEL5   LA    R10,1(R10)
         CLI   0(R10),C','
         BE    LABEL6
         CLC   0(5,R10),=C'RETPD='
         BE    LABEL7
         CLC   0(5,R10),=C'EXPDT'
         BE    LABEL7
         LA    R11,4(R10)
         BAL   R4,GETDELIM
         B     ERROR
         MVC   LABLIO,0(R10)
         LA    R10,0(R11)
         CLI   0(R10),C')'
         BNE   LABEL6
         LA    R10,1(R10)
         B     IDENTIFY
LABEL6   LA    R10,1(R10)
         CLC   0(5,R10),=C'EXPDT'
         BE    LABEL7
         CLC   0(5,R10),=C'RETPD'
         BNE   ERROR
LABEL7   LA    R10,6(R10)
         LA    R11,6(R10)
         BAL   R4,GETDELIM
         B     ERROR
         BAL   R4,CHECKEX5
         EX    R9,MVELBDTE
         LA    R10,1(R11)
         B     IDENTIFY
         SPACE 1
MVELBLNO MVC   LABLNO(0),0(R10)
MVELBTYP MVC   LABLTYPE(0),0(R10)
MVELBDTE MVC   LABLDATE(0),0(R10)
         TITLE ' '
SSUBALOC SUBIN
         MVC   SUBALLOC(8),0(R10)
         LA    R10,9(R10)
         LA    R11,INPUT+92
         BAL   R4,GETDELIM
         B     ERROR
         LA    R10,1(R11)
         CLI   DELIMITR,C','
         BE    IDENTIFY
         CLI   DELIMITR,C'('
         BNE   ERROR
SUBALOC2 LA    R11,INPUT+92
         BAL   R4,GETDELIM
         B     ERROR
         LA    R10,1(R11)
         CLI   DELIMITR,C','
         BE    SUBALOC2
         CLI   DELIMITR,C')'
         BE    IDENTIFY
SUBALOC3 LA    R11,INPUT+92
         BAL   R4,GETDELIM
         B     ERROR
         LA    R10,1(R11)
         CLI   DELIMITR,C')'
         BE    SUBALOC2
         B     SUBALOC3
         EJECT
SSPLIT   SUBIN
         MVC   SPLIT(5),0(R10)
         LA    R10,6(R10)
         LA    R11,INPUT+92
         BAL   R4,GETDELIM
         B     ERROR
         LA    R10,1(R11)
         CLI   DELIMITR,C' '
         BE    READ
         CLI   DELIMITR,C','
         BE    IDENTIFY
         CLI   DELIMITR,C'('
         BNE   ERROR
SSPLIT2  LA    R11,INPUT+92
         BAL   R4,GETDELIM
         B     ERROR
         LA    R10,1(R11)
         CLI   DELIMITR,C')'
         BNE   SSPLIT2
         LA    R10,1(R10)
         B     IDENTIFY
         EJECT
DUMMY    SUBIN
         MVC   DDDUMMY,0(R10)
         LA    R10,5(R10)
         B     IDENTIFY
         SPACE 5
DDATA    SUBIN
         MVC   DDDATA,0(R10)
         LA    R10,4(R10)
         B     IDENTIFY
         SPACE 5
DASTRSK  SUBIN
         MVC   DDASTRSK,0(R10)
         LA    R10,1(R10)
         B     IDENTIFY
         SPACE 5
DDYNAM   SUBIN
         MVC   DDDYNAM,0(R10)
         LA    R10,5(R10)
         B     IDENTIFY
         SPACE 5
DDDNAME  SUBIN
         LA    R10,7(R10)
         LA    R11,9(R10)
         BAL   R4,GETDELIM
         B     ERROR
         BAL   R4,CHECKEX8
         EX    R9,MOVEDDNM
         LA    R10,1(R11)
         B     IDENTIFY
         SPACE 1
MOVEDDNM MVC   DDDDNAME(0),0(R10)
         EJECT
AFF      SUBIN
         MVI   CHANAFF,C'A'
         LA    R10,4(R10)
         LA    R11,9(R10)
         BAL   R4,GETDELIM
         B     ERROR
         LA    R10,1(R11)
         B     IDENTIFY
         SPACE 5
SEP      SUBIN
         MVI   CHANSEP,C'S'
         LA    R10,4(R10)
         CLI   0(R10),C'('
         BE    SEP2
         LA    R11,INPUT+92
         BAL   R4,GETDELIM
         B     ERROR
         LA    R10,1(R11)
         B     IDENTIFY
SEP2     LA    R10,1(R10)
         LA    R11,INPUT+92
         BAL   R4,GETDELIM
         B     ERROR
         LA    R10,0(R11)
         CLI   DELIMITR,C')'
         BNE   SEP2
         LA    R10,1(R10)
         B     IDENTIFY
         EJECT
VOLUME   LA    R10,3(R10)
VOL      LA    R10,4(R10)
         CLI   0(R10),C'S'
         BNE   VOL3
         MVI   VOLSER,C'S'
         LA    R11,INPUT+92
         BAL   R4,GETDELIM
         B     ERROR
         CLI   DELIMITR,C' '
         BE    READ
         CLI   DELIMITR,C','
         BNE   VOL2
         LA    R10,1(R11)
         B     IDENTIFY
VOL2     LA    R10,1(R11)
         LA    R11,INPUT+92
         BAL   R4,GETDELIM
         B     ERROR
         CLI   DELIMITR,C')'
         BNE   VOL2
         LA    R10,1(R11)
         B     IDENTIFY
VOL3     CLI   0(R10),C'R'
         BNE   VOL4
         MVI   VOLREF,C'R'
         LA    R11,INPUT+92
         BAL   R4,GETDELIM
         B     ERROR
         LA    R10,1(R11)
         CLI   DELIMITR,C','
         BE    IDENTIFY
         CLI   DELIMITR,C' '
         BE    IDENTIFY
         B     ERROR
VOL4     LA    R10,1(R10)
         CLI   0(R10),C','
         BE    VOL5
         CLC   0(3,R10),=C'SER'
         BE    VOL10
         CLC   0(3,R10),=C'REF'
         BE    VOL9
         MVI   VOLPRIV,C'P'
         LA    R10,7(R10)
         CLI   0(R10),C')'
         BNE   VOL5
         LA    R10,1(R10)
         B     IDENTIFY
VOL5     LA    R10,1(R10)
         CLI   0(R10),C','
         BE    VOL6
         CLC   0(3,R10),=C'SER'
         BE    VOL10
         CLC   0(3,R10),=C'REF'
         BE    VOL9
         MVI   VOLRET,C'R'
         LA    R10,6(R10)
         CLI   0(R10),C')'
         BNE   VOL6
         LA    R10,1(R10)
         B     IDENTIFY
VOL6     LA    R10,1(R10)
         CLC   0(3,R10),=C'SER'
         BE    VOL10
         CLC   0(3,R10),=C'REF'
         BE    VOL9
         CLI   0(R10),C','
         BE    VOL7
         MVC   VOLSEQ,0(R10)
         CLI   1(R10),C'A'
         BNL   ERROR
         LA    R10,1(R10)
         CLI   0(R10),C')'
         BNE   VOL7
         LA    R10,1(R10)
         B     IDENTIFY
VOL7     LA    R10,1(R10)
         CLC   0(3,R10),=C'SER'
         BE    VOL10
         CLC   0(3,R10),=C'REF'
         BE    VOL9
         CLI   0(R10),C','
         BE    VOL8
         LA    R11,INPUT+92
         BAL   R4,GETDELIM
         B     ERROR
VOL74    CLI   0(R10),C'0'
         BNE   VOL75
         LA    R10,1(R10)
         B     VOL74
VOL75    CLC   0(2,R10),=C'35'
         BNE   VOL76
         MVI   VOLCNT,C'+'
         LA    R10,0(R11)
         B     VOL77
VOL76    CLI   0(R10),X'50'
         BNE   VOL765
         MVI   VOLCNT,X'50'
         LA    R10,0(R11)
         B     VOL77
VOL765   EQU   *
         MVC   VOLCNT,0(R10)
         CLI   1(R10),C'A'
         BNL   ERROR
         LA    R10,1(R10)
VOL77    EQU   *
         CLI   0(R10),C')'
         BNE   VOL8
         LA    R10,1(R10)
         B     IDENTIFY
VOL8     CLI   0(R10),C','
         BNE   ERROR
         LA    R10,1(R10)
         CLC   0(3,R10),=C'SER'
         BE    VOL10
         CLC   0(3,R10),=C'REF'
         BNE   ERROR
VOL9     MVI   VOLREF,C'R'
         LA    R11,INPUT+92
         BAL   R4,GETDELIM
         B     ERROR
         LA    R10,1(R11)
         B     IDENTIFY
VOL10    MVI   VOLSER,C'S'
         LA    R10,6(R10)
VOL11    LA    R11,INPUT+92
         BAL   R4,GETDELIM
         B     ERROR
         CLI   DELIMITR,C')'
         BE    VOL12
         LA    R10,1(R11)
         B     VOL11
VOL12    LA    R10,1(R11)
         CLI   0(R10),C')'
         BNE   IDENTIFY
         LA    R10,1(R10)
         B     IDENTIFY
         EJECT
UNIT     SUBIN
         LA    R10,5(R10)
         CLC   0(3,R10),=C'AFF'
         BNE   UNIT2
         MVI   UNITAFF,C'A'
         LA    R11,13(R10)
         BAL   R4,GETDELIM
         B     ERROR
         LA    R10,1(R11)
         B     IDENTIFY
UNIT2    CLI   0(R10),C'('
         BE    UNIT3
         CLI   0(R10),X'50'
         BE    UNIT7
         LA    R11,9(R10)
         BAL   R4,GETDELIM
         B     ERROR
         BAL   R4,CHECKEX8
         EX    R9,MOVEUNIT
         LA    R10,1(R11)
         B     IDENTIFY
UNIT3    LA    R10,1(R10)
         CLI   0(R10),C','
         BE    UNIT35
         CLI   0(R10),X'50'
         BE    UNIT7
         LA    R11,9(R10)
         BAL   R4,GETDELIM
         B     ERROR
         BAL   R4,CHECKEX8
         EX    R9,MOVEUNIT
         LA    R10,0(R11)
         CLI   DELIMITR,C')'
         BNE   UNIT34
         LA    R10,1(R10)
         B     IDENTIFY
UNIT34   EQU   *
UNIT35   LA    R10,1(R10)
         CLI   0(R10),C','
         BE    UNIT4
         CLC   0(3,R10),=C'SEP'
         BE    UNIT6
         MVC   UNITCNT,0(R10)
         LA    R10,1(R10)
         CLI   0(R10),C','
         BE    UNIT4
         CLI   0(R10),C')'
         BNE   ERROR
         LA    R10,1(R10)
         B     IDENTIFY
UNIT4    LA    R10,1(R10)
         CLI   0(R10),C','
         BE    UNIT5
         CLC   0(3,R10),=C'SEP'
         BE    UNIT6
         MVI   UNITDEF,C'D'
         LA    R10,5(R10)
         CLI   0(R10),C','
         BE    UNIT5
         CLI   0(R10),C')'
         BNE   ERROR
         LA    R10,1(R10)
         B     IDENTIFY
UNIT5    LA    R10,1(R10)
         CLI   0(R10),C'S'
         BNE   ERROR
         MVI   UNITSEP,C'S'
UNIT6    LA    R11,INPUT+92
         BAL   R4,GETDELIM
         B     ERROR
         LA    R10,1(R11)
         CLI   DELIMITR,C')'
         BNE   UNIT6
         CLI   0(R10),C','
         BE    IDENTIFY
         LA    R10,1(R10)
         B     IDENTIFY
UNIT7    MVC   UNITTYPE,=CL8'SYMBOLIC'
         LA    R11,INPUT+92
         BAL   R4,GETDELIM
         B     ERROR
         LA    R10,1(R11)
         B     IDENTIFY
         SPACE 1
MOVEUNIT MVC   UNITTYPE(0),0(R10)
         EJECT
SYSOUT   SUBIN
         LA    R10,7(R10)
         CLI   0(R10),C'('
         BE    SYSOUT2
         MVC   SYSOUTC,0(R10)
         LA    R10,1(R10)
         B     IDENTIFY
SYSOUT2  LA    R10,1(R10)
         MVC   SYSOUTC,0(R10)
         LA    R10,1(R10)
         CLI   0(R10),C','
         BE    SYSOUT25
         BCTR  R10,0
         CLI   0(R10),X'50'
         BNE   ERROR
         LA    R11,INPUT+92
         BAL   R4,GETDELIM
         B     ERROR
         LA    R10,0(R11)
         CLI   DELIMITR,C','
         BNE   ERROR
SYSOUT25 EQU   *
         LA    R10,1(R10)
         CLI   0(R10),C','
         BNE   *-8
         LA    R10,1(R10)
         LA    R11,5(R10)
         BAL   R4,GETDELIM
         B     SYSOUT3
         BAL   R4,CHECKEX4
         EX    R9,MOVEFORM
         LA    R10,1(R11)
         B     IDENTIFY
         SPACE 1
MOVEFORM MVC   SYSOUTF(0),0(R10)
         SPACE 1
SYSOUT3  EQU   *
         LA    R9,4
         LA    R11,4(R10)
SYSOUT4  BCTR  R11,0
         CLI   0(R11),X'50'
         BE    SYSOUT5
         BCT   R9,SYSOUT4
         B     ERROR
SYSOUT5  MVC   SYSOUTF,0(R10)
         LA    R11,INPUT+92
         BAL   R4,GETDELIM
         B     ERROR
         LA    R10,1(R11)
         B     IDENTIFY
         EJECT
DISP     SUBIN
         LA    R10,5(R10)
         CLI   0(R10),C'('
         BE    DISP2
         MVC   DISPSTAT,0(R10)
         LA    R10,4(R10)
         B     IDENTIFY
DISP2    LA    R10,1(R10)
         CLI   0(R10),C','
         BE    DISP3
         MVC   DISPSTAT,0(R10)
         LA    R10,3(R10)
         CLI   0(R10),C','
         BE    DISP3
         CLI   0(R10),C')'
         BNE   ERROR
         LA    R10,1(R10)
         B     IDENTIFY
DISP3    LA    R10,1(R10)
         CLI   0(R10),C','
         BE    DISP4
         LA    R11,8(R10)
         BAL   R4,GETDELIM
         B     ERROR
         BAL   R4,CHECKEX7
         EX    R9,MOVEDISP
         LA    R10,0(R11)
         CLI   0(R10),C','
         BE    DISP4
         CLI   0(R10),C')'
         BNE   ERROR
         LA    R10,1(R10)
         B     IDENTIFY
DISP4    LA    R10,1(R10)
         CLI   0(R10),C' '
         BNE   DISP5
         OI    LASTPARM,BIT2
         B     READ
DISP5    EQU   *
         LA    R11,8(R10)
         BAL   R4,GETDELIM
         B     ERROR
         BAL   R4,CHECKEX7
         EX    R9,MOVECOND
         LA    R10,1(R11)
         CLI   DELIMITR,C')'
         BNE   ERROR
         B     IDENTIFY
         SPACE 1
MOVEDISP MVC   DISPDISP(0),0(R10)
MOVECOND MVC   DISPCOND(0),0(R10)
         EJECT
SPACE    SUBIN
         LA    R10,7(R10)
         MVI   SPACETYP,C'C'
         CLC   0(3,R10),=C'CYL'
         BNE   SPACE2
         LA    R10,4(R10)
         B     SPACE5
SPACE2   MVI   SPACETYP,C'T'
         CLC   0(3,R10),=C'TRK'
         BNE   SPACE3
         LA    R10,4(R10)
         B     SPACE5
SPACE3   MVI   SPACETYP,C'A'
         CLC   0(5,R10),=C'ABSTR'
         BNE   SPACE4
         LA    R10,6(R10)
         B     SPACE5
SPACE4   LA    R11,5(R10)
         BAL   R4,GETDELIM
         B     ERROR
         LA    R10,1(R11)
         MVI   SPACETYP,C'B'
SPACE5   CLI   0(R10),C'('
         BE    SPACE6
         CLI   0(R10),C' '
         BNE   SPACE55
         OI    LASTPARM,BIT0
         B     READ
SPACE55  EQU   *
         LA    R11,4(R10)
         BAL   R4,GETDELIM
         B     ERROR
         CLI   0(R10),X'50'
         BNE   SPACE56
         LA    R9,2
SPACE56  EQU   *
         BAL   R4,CHECKEX3
         EX    R9,MOVEPRI
         LA    R10,1(R11)
         CLI   DELIMITR,C')'
         BE    IDENTIFY
         BCTR  R10,0
         B     SPACE10
SPACE6   LA    R10,1(R10)
         LA    R11,4(R10)
         BAL   R4,GETDELIM
         B     SPACE12
         BAL   R4,CHECKEX3
SPACE61  EX    R9,MOVEPRI
         LA    R10,1(R11)
         CLI   DELIMITR,C')'
         BE    SPACE8
         CLI   0(R10),C','
         BE    SPACE7
         LA    R11,4(R10)
         BAL   R4,GETDELIM
         B     ERROR
         BAL   R4,CHECKEX3
         EX    R9,MOVESEC
         LA    R10,1(R11)
         CLI   DELIMITR,C')'
         BE    SPACE8
         BCTR  R10,0
SPACE7   LA    R10,1(R10)
         CLI   0(R10),C')'