         MACRO
&NAME    LINKAGE &TYPE=CSECT,&BASE=12,&ARG=2,&SAVE=,&GET=
         LCLA  &N
         AIF   ('&TYPE(1)' EQ 'ENTRY').ENTRY
&NAME    CSECT
         AGO   .BR
.ENTRY   AIF   ('&NAME' EQ '').NOID1
         ENTRY &NAME
.NOID1   ANOP
&NAME    DS    0D
.BR      AIF   (N'&BASE GE 1).BASE
         USING *,15
         AGO   .NAME
.BASE    USING *,&BASE
.NAME    AIF   ('&NAME' EQ '').NOID
         B     14(,15) BRANCH AROUND ID
         DC    X'9',CL9'&NAME' ID
.NOID    STM   14,12,12(13) SAVE REGISTERS
         AIF   ('&ARG(1)' EQ '').ARG0
         LR    &ARG(1),1
.ARG0    AIF   ('&ARG(2)' EQ '').BASE1
         LR    &ARG(2),0
.BASE1   AIF   (N'&BASE EQ 0).SAVE1
         LR    &BASE(1),15 BASE REG
         AIF   (N'&BASE EQ 1).SAVE1
         LA    1,1
&N       SETA  2
.BASE2   LA    &BASE(&N),X'FFF'(1,&BASE(&N-1))
&N       SETA  &N+1
         AIF   (&N LE N'&BASE).BASE2
.SAVE1   AIF   ('&SAVE' EQ '').GETSAVE
         AIF   ('&GET' NE '').GETWORK
         LA    1,&SAVE
         USING &SAVE,13 BASE REG FOR WORK AREA
         AGO   .FWDCHN
.GETWORK GETMAIN R,LV=&GET GET STG FOR REG SAVE AND WORK
         USING &SAVE,13 BASE REG FOR WORK AREA
         AGO   .FWDCHN
.GETSAVE GETMAIN R,LV=72
.FWDCHN  ST    1,8(0,13) FORWARD CHAIN
         ST    13,4(0,1) BACK CHAIN
         LR    13,1 NEW SAVE AREA
         SPACE
         MEND
         EJECT
         MACRO
&NAME    EXITLKG &T,&RC=0,&SAVE=,&FREE=
&NAME    L     13,4(0,13) PTR TO PREV SAVE
         L     14,12(0,13) RESTORE RETURN
         LM    2,12,28(13) RESTORE REGS 2-12
         AIF   ('&SAVE' NE '' AND '&FREE' EQ '').GOBACK
         L     1,8(,13) PTR TO AREA TO FREE
         LA    1,0(,1)
         AIF   ('&FREE' EQ '').FREE72
         LA    0,&FREE SIZE OF REG SAVE AND WORK
         AGO   .FREE
.FREE72  LA    0,72(0,0) SIZE OF REG SAVE AREA
.FREE    FREEMAIN R,LV=(0),A=(1)
.GOBACK  RETURN ,&T,RC=&RC
         SPACE
         MEND
LIST     TITLE 'LISTUTIL - PS OR IS DATASET LIST OR COPY '
*                DEFAULT VALUES OF PARM='PS-PS--0,NP,52-0-20,,0'
*                                          .       .  .       .
*  PS-PS, OR  PS, OR  ,  . . . . . . . . . .       .  .  NR OF RECORDS
*    PHYSICAL SEQUENTIAL TO PHYSICAL SEQUENTIAL    .  .  SKIPPED,  OR
*                                                  .  .
*  IS-PS, OR  IS,                                  .  .  K- FOLLOWED BY
*    INDEXED SEQUENTIAL TO PHYSICAL SEQUENTIAL     .  .  KEY TO START
*                                                  .  .  AT (IS ONLY)
*  PS-IS,                                          .  .
*    PHYSICAL SEQUENTIAL TO INDEXED SEQUENTIAL     .  .  KC-FOLLOWED BY
*                                                  .  .  KEY CLASS TO
*  IS-IS,                                          .  .  START AT (IS)
*    INDEXED SEQUENTIAL TO INDEXED SEQUENTIAL      .  .
*                                                  .  .
*  NOTE- ANY OF THE ABOVE MAY BE FOLLOWED BY -NAME .  ...NR LINES/PAGE
*    TO LOAD A MODIFICATION ROUTINE.  THE NUMBER   .     ON SYSPRINT
*    OF I/O ERRORS ACCEPTED MAY BE SPECIFIED       .     (10 TO 99)
*    BY CODING -NAME-NR  OR --NR (UP TO 7 DIGITS)  .
*                                                  .     -NNNNNNN NR OF
*  . . . . . . . . . . . . . . . . . . . . . . . . .     REC PRINTED
*  NP    PRINT RECORDS, 100 CHARACTERS PER LINE
*                                                        -NNNNNNN NR OF
*  HX  PRINT BOTH HEX AND PRINTABLE GRAPHICS             ERR MSG/RECORD
*                                                       (BE OR BA ONLY)
*  HN  PRINT RECORDS HEX ONLY.
*
*  L1  LIST WITH SINGLE SPACING BETWEEN RECORDS.  REC NR NOT PRINTED.
*
*  L2  LIST WITH DOUBLE SPACING BETWEEN RECORDS.  REC NR NOT PRINTED.
*
*  TR  TRANSLATE SYSUT1 DATA.  ALL UNPRINTABLE CHARACTERS ARE SET TO
*      BLANK (60 CHARACTER SET).  XLATE TABLE MAY BE CHANGED BY PAIRS
*      OF CARDS IN SYSIN STREAM.  (CHARACTER ON SECOND CARD REPLACES
*      CORRESPONDING CHARACTER ON FIRST CARD).
*
*  BE  SCAN FOR BCD CHAR SYSUT1 TO SYSUT2
*      PRINT ONLY ERROR RECORDS AND ERROR MESSAGES.
*
*  BN  SCAN FOR BCD CHARACTERS OR CHARACTER SET ON SYSIN DATA CARD.
*      PRINT ALL RECORDS.  NO ERROR MESSAGES. (TR WOULD BE BETTER.)
*
*  BA  SCAN FOR BCD CHAR  SYSUT1 TO SYSUT2
*      PRINT ALL RECORDS AND ERROR MESSAGES.
*
*  NOTE - AN ALTERNATE TRANSLATE TABLE OR VALID CHARACTER TABLE
*      MAY BE LOADED FROM THE STEPLIB OR JOBLIB BY CODING
*        TR-NAME  BN-NAME  BE-NAME  OR  BA-NAME
*      WHERE NAME IS THE NAME OF THE 256 BYTE MODULE ON THE LIBRARY.
*
*
*  FOURTH PARAMETER IS MAXIMUM NUMBER OF RECORDS
*    ACCEPTED. DEFAULT VALUE IS 999999999999999
         EJECT
*        REGISTER USAGE
*                            R0  WORK
*                            R1  WORK
*                            R2  WORK FOR PARM
*                            R3  WORK FOR PARM
*                            R4  PTR TO INPUT DCB
*                            R5  PTR TO OUTPUT DCB
*                            R6  PTR TO INPUT RECORD
*                            R7  # BYTES LEFT TO BE PRINTED
*                            R8  PTR TO PRINT RECORD
*                            R9  # LINES LEFT ON PAGE
*                            R10 WORK FOR HEX LINE
*                            R11 WORK FOR HEX LINE
*                            R12 BASE REG
*
LISTUTIL LINKAGE SAVE=SAVEAREA,GET=512
         ST    13,SAVE13
         XC    WORK(256),WORK          CLEAR WORK AREA
         XC    WORK+256(184),WORK+256
         ZAP   #LINES,=P'52'           SET FOR 52 LINES PER PAGE
         ZAP   MXTOTREC,=P'0'          ONLY MSG UNLESS PARM VALUE 3 ..4
         ZAP   MXRECERR,=P'20'
         ZAP   #IOERRS,=P'0'
         ZAP   MAXIOERR,=P'0'
         ZAP   #SKIP,=P'0'
         ZAP   RECCTR,=P'0'
         ZAP   RECINSRT,=P'0'
         ZAP   RECDLETE,=P'0'
         ZAP   RECOUT,=P'0'
         ZAP   MAXACCPT,=P'999999999999999'
         MVC   MODNAME,BLANKS
         MVC   TRNAME,BLANKS
         MVC   PTRVALID,=A(VALIDTBL)
         MVC   PTRXLATE,=A(XTABLE)
IN       EQU   4
OUT      EQU   5
         L     IN,=A(PSDCB)            SET FOR PS INPUT
         L     OUT,=A(OUTDCB)          SET FOR PS OUTPUT
         LA    9,1                     FIRST LINE ON NEW PAGE
         OPEN  (PRINT,OUTPUT)
         L     3,0(0,2)                PARM
         LH    10,0(,3)                COUNT
         BCTR  10,0                    SET LENGTH CODE
         LA    7,2(,3)                 PTR TO FIRST PARM CHAR
         BAL   14,SCANPARM
         B     PARMODSO
         CLI   0(8),C'I'               CHECK FOR IS INPUT
         BNE   *+8
         L     IN,=A(ISDCB)            SET FOR IS INPUT
PARMODSO EQU   *
         B     *(2)
         B     PARMOPT                 DELIMITER WAS COMMA
         BAL   14,SCANPARM
         B     PARMMOD                 NO OUTPUT DSORG AFTER -
         CLI   0(8),C'I'               CHECK FOR IS OUTPUT
         BNE   *+8                       NO
         L     OUT,=A(OUTIS)           SET FOR IS OUTPUT
PARMMOD  EQU   *
         B     *(2)
         B     PARMOPT                 DELIMITER WAS COMMA
         BAL   14,SCANPARM
         B     PARMAXIO                NO NAME AFTER -
         CLI   0(8),C'A'               CHECK FIRST NAME CHAR ALPHA
         BL    PARMAXIO
         CLI   0(8),C'Z'
         BH    PARMAXIO
         CH    1,=H'8'
         BL    *+8                     LENGTH OK
         LA    1,7                     TOO LONG - TRY FIRST 8
         EX    1,MOVEMODN              SAVE MOD RTN NAME
         LOAD  EPLOC=MODNAME
         ST    0,PTRMOD                STORE ADDRESS OF MOD RTN LOADED
PARMAXIO B     *(2)
         B     PARMOPT                 DELIMITER WAS COMMA
         BAL   14,SCANPARM
         B     PARMOPT                 MAX I/O ERRORS ACCEPTED NOT SPEC
         BAL   14,NUMERIC
         EX    1,PACKIOER
PARMOPT  BAL   14,SCANPARM
         B     PARMOPDN
         MVC   PRNTPARM,0(8)           MOVE PRINT OPTION
PARMOPDN EQU   *
         B     *(2)
         B     PARMPGLN                DELIMITER WAS COMMA
         BAL   14,SCANPARM
         B     PARMPGLN
         CLI   0(8),C'A'               CHECK FIRST NAME CHAR ALPHA
         BL    PARMPGLN
         CLI   0(8),C'Z'
         BH    PARMPGLN
         CH    1,=H'8'
         BL    *+8                     LENGTH OK
         LA    1,7                     TOO LONG - TRY FIRST 8
         EX    1,MOVETRNM              SAVE TRANSLATE TABLE NAME
         LOAD  EPLOC=TRNAME
         ST    0,PTRVALID
         ST    0,PTRXLATE
PARMPGLN BAL   14,SCANPARM
         B     PARMPGDN
         BAL   14,NUMERIC
         EX    1,PACKLINE              SET NR LINES PER PAGE
PARMPGDN EQU   *
         B     *(2)
         B     PARMCC                  DELIMITER WAS COMMA
         BAL   14,SCANPARM
         B     PARMTODN                NR REC PRINTED NOT SPECIFIED
         BAL   14,NUMERIC
         EX    1,PACKTPRT
PARMTODN B     *(2)
         B     PARMCC                  DELIMITER WAS COMMA
         BAL   14,SCANPARM
         B     PARMCC                  NR ERR MSG PER REC NOT SPECIFIED
         BAL   14,NUMERIC
         EX    1,PACKERMS
PARMCC   BAL   14,SCANPARM
         B     PARMKEY                 NOT MAX REC ACCEPTED
         BAL   14,NUMERIC
         EX    1,PACKACPT              NR REC ACCEPTED IF NUMERIC
PARMKEY  BAL   14,SCANPARM
         B     PARMDONE
         CLI   0(8),C'K'               CHECK FOR KEY CLASS
         BNE   PARMSKIP
         C     IN,=A(ISDCB)            INPUT MUST BE IS
         BNE   PARMDONE
         MVC   KEYTYPE,0(8)
         LTR   10,10
         BM    PARMDONE                NO KEY SPECIFIED
         EX    10,MOVEKEY              KEY TO AREA - TRAILING ZEROES
         LA    1,1(0,10)
         STC   1,KEYLENTH
         B     PARMDONE
PARMSKIP BAL   14,NUMERIC
         EX    1,PACKSKIP
         B     PARMDONE
PACKLINE PACK  #LINES,0(0,8)
PACKTPRT PACK  MXTOTREC,0(0,8)
PACKERMS PACK  MXRECERR,0(0,8)
PACKIOER PACK  MAXIOERR,0(0,8)
PACKACPT PACK  MAXACCPT,0(0,8)
PACKSKIP PACK  #SKIP,0(0,8)
MOVEMODN MVC   MODNAME(0),0(8)
MOVETRNM MVC   TRNAME(0),0(8)
MOVEKEY  MVC   KEYAREA(0),0(7)
TRNSLATE TR    0(0,8),0(3)
MOVEOUT  MVC   0(0,1),0(8)
         EJECT
*  SCANPARM RECEIVES
*    R7  POINTER TO FIRST CHAR SCANNED
*    R10 LENGTH CODE TO SCAN (NEGATIVE IF NONE)
*    R14 RETURN ADDRESS
*  SCANPARM RETURNES
*    R8  POINTER TO ELEMENT SCANNED
*    R7  POINTER TO NEXT ELEMENT
*    R1  LENGTH CODE OF ELEMENT SCANNED NEGATIVE IF OMITTED)
*    R10 LENGTH CODE OF REMAINING CHAR (NEGATIVE IF NONE)
*    R14 RETURN ADDRESS IF ELEMENT OMITTED
*    R14 RETURN ADDRESS+4 IF ELEMENT FOUND
*    R2  4 IF DELIMITER WAS COMMA
*    R2  8 IF DELIMITER WAS MINUS SIGN
         SPACE
SCANPARM EQU   *
         LTR   10,10
         BM    PARMDONE                NO CHAR TO SCAN
         LR    8,7                     PTR TO ELEMENT SCANNED
         LA    2,4                     R2 IS 4 AT END OF PARM
         LA    1,1(10,8)               LAST+1 IF NO DELIMITER FOUND
         L     7,=A(SCANTBL)
         EX    10,SCANTRT              SCAN TO , - = OR END OF TABLE
         LA    7,1(,1)                 POINTER TO NEXT ELEMENT
         LR    11,7
         SR    11,8                    NR OF CHAR SCANNED
         SR    10,11                   LEN CODE REMAINING (NEG IF NONE)
         SR    1,8                     NR OF CHAR IN ELEMENT
         BCTR  1,0                     LENGTH CODE FOR ELEMENT
         BNH   0(,14)                  ELEMENT OMITTED
         B     4(,14)                  ELEMENT CODED
SCANTRT  TRT   0(0,8),0(7)
         SPACE 3
*  NUMERIC RECIEVES
*    R8  POINTER TO ELEMENT
*    R1  LENGTH CODE FOR ELEMENT
*  NUMERIC RETURNS TO
*        RETURN ADDRESS IF ELEMENT IS ALL NUMERIC
*        RETURN ADDRESS+4 IF ELEMENT IS NOT ALL NUMERIC
         SPACE
NUMERIC  MVC   NUMCHECK,=C'0000000'    RESET CHECK AREA
         EX    1,MOVEZONE
         CLC   NUMCHECK,=C'0000000'    CHECK IF NUMERIC
         BNE   4(14)                   RETURN ADDRESS+4 IF NOT NUMERIC
         BR    14                      RETURN
MOVEZONE MVZ   NUMCHECK(0),0(8)
         EJECT
PARMDONE EQU   *
         CLI   PRNTPARM,C'T'
         BE    *+12                    GO SEE IF XLATE CHARACTERS INPUT
         CLI   PRNTPARM,C'B'
         BNE   PARMBXIT                NOT VALIDATE
         OPEN  (CDDCB,INPUT)           OPEN FOR SET OF VALID CHAR
         OI    FIRSTSW,1
         L     3,=A(CDDCB)
         TM    48(3),X'10'
         BZ    PARMBXIT                USE DEFAULT TABLE
PARMBGET EQU   *
         GET   (3)
         LR    6,1                     POINTER TO INPUT RECORD
         L     1,=A(PRINT)
         TM    48(1),X'10'             CHECK IF OPEN
         BZ    NOMSCD1
         PUT   (1)
         MVI   0(1),C'0'               DOUBLE SPACE
         MVC   1(80,1),0(6)
         MVC   81(52,1),BLANKS
NOMSCD1  EQU   *
         LH    7,82(,3)
         CLI   PRNTPARM,C'T'
         BNE   BINPUT                  GO SET VALID CHAR TABLE
         MVC   CARD1,0(6)
         GET   (3)
         LR    6,1                     POINTER TO INPUT RECORD
         L     1,=A(PRINT)
         TM    48(1),X'10'             CHECK IF OPEN
         BZ    NOMSCD2
         PUT   (1)
         MVI   0(1),C' '
         MVC   1(80,1),0(6)
         MVC   81(52,1),BLANKS
NOMSCD2  EQU   *
         SR    2,2
         SR    0,0
XTBLOOP  IC    0,0(2,6)
         SR    1,1
         IC    1,CARD1(2)                REPLACES CORRESPONDING
         A     1,PTRXLATE
         STC   0,0(1)                  CHAR ON CARD1
         LA    2,1(,2)
         BCT   7,XTBLOOP
         B     PARMBGET
BINPUT   EQU   *
         L     2,=A(VALIDTBL)
         TM    FIRSTSW,1
         BNO   PARMBSET
         MVI   0(2),C'*'
         MVC   1(255,2),0(2)           RESET TABLE TO *
         NI    FIRSTSW,255-1
PARMBSET SR    1,1
         IC    1,0(,6)                 VALID CHAR
         AR    1,2
         MVI   0(1),0                  SET VALID CHAR IN TABLE
         LA    6,1(,6)
         BCT   7,PARMBSET              SET NEXT CHAR
         B     PARMBGET                GET NEXT CARD
SYSERR   EQU   *
         L     1,=A(PRINT)
         TM    48(1),X'10'             CHECK IF OPEN
         BZ    PARMBEOF
         PUT   (1)
         MVC   0(53,1),=CL53'0I/O ERROR ON SYSIN - REMAINING CARDS IGNOR
               RED'
         MVC   53(80,1),BLANKS
PARMBEOF EQU   *
         CLOSE CDDCB
PARMBXIT EQU   *
         OPEN  ((IN),INPUT,(OUT),OUTPUT)
         TM    48(IN),X'10'
         BZ    NOINPUT
         CLI   KEYTYPE,C'K'            CHECK IF KEY SPECIFIED
         BNE   ENDSETL                   NO
         CLI   KEYTYPE+1,C'C'          CHECK IF KEY CLASS SPECIFIED
         BE    SETLKC                    YES - REQUESTED KEY CLASS
         CLC   KEYLENTH,16(IN)
         BL    SETLKC                  KEY SPECIFIED SHORTER THAN KEYLN
         SETL  (IN),K,KEYAREA          SET START RECORD KEY
         B     ENDSETL
SETLKC   SETL  (IN),KC,KEYAREA           YES - SETL FOR KEY CLASS
ENDSETL  EQU   *
         MVI   MODCODE,8
         OC    PTRMOD,PTRMOD
         BZ    NEXTGET                 NO MODULE LOADED
         MVI   MODCODE,0
         ST    IN,MODPARM2
         MVC   MODPARM3,=A(PRINT)
         MVI   MODPARM3,X'80'
NEXTGET  EQU   *
         ZAP   CHARCTR,=P'0'           RESET CHAR CTR
         CLI   MODCODE,12
         BNE   *+12
         LH    0,SAVLRECL
         B     MODINSED                RECORD INSERTED - GO BACK
         SPACE
         GET   (IN)
         NI    ERRFLAG,0               RESET ERROR FLAGS
         AP    RECCTR,=P'1'
         ZAP   RECNR,RECCTR
         LH    7,82(0,IN)              LRECL
         TM    36(IN),X'80'
         BO    NOTVAR                  NOT VARIABLE LENGTH RECORDS
         CLC   0(2,1),82(IN)           LENGTH FIELD : MAX LRECL
         BH    NOTVAR                    TOO HIGH
         MVC   WORK2,0(1)                OK - USE LENGTH FIELD
         LH    7,WORK2
NOTVAR   EQU   *
         STH   7,SAVLRECL
         LR    0,7
         A     0,#CHAREAD              ACCUMULATE TOTAL CHARACTERS READ
         ST    0,#CHAREAD
         CLI   MODCODE,8
         BE    MODACPT1
         ST    1,MODPARM1
         LR    0,7
         SPACE
MODINSED EQU   *
         L     15,PTRMOD
         LA    1,MODPARM1
         BALR  14,15
         STC   15,MODCODE
         B     *+4(15)
         B     MODACCPT            0   ACCEPT OR REPLACE
         B     MODELETE            4   DELETE
         B     MODNOT              8   DO NOT RETURN
         B     MODINSRT           12   INSERT
         SPACE
MODELETE AP    RECDLETE,=P'1'          COUNT DELETES
         B     NEXTGET
MODNOT   L     1,MODPARM1
         LH    7,SAVLRECL
         LTR   1,1
         BNZ   MODACPT1
         B     EXITNOMO                EOF ON SYSUT1 - NO INSERT
MODINSRT AP    RECINSRT,=P'1'          COUNT RECORDS INSERTED
MODACCPT EQU   *
         LA    2,MODPARM1
         CR    1,2
         BE    MODNOT                  REG 1 HAS NOT BEEN CHANGED
         LR    7,0                     LENGTH ACCEPTED
MODACPT1 EQU   *
         CP    RECCTR,#SKIP
         BL    NEXTGET       SKIP FIRST N RECORDS
         CP    RECOUT,MAXACCPT
         BNL   EXITNOMO                MAX NR RECORDS ACCEPTED
         AP    RECOUT,=P'1'            COUNT RECORDS OUT
         LR    0,7
         CVD   0,WORK8
         ZAP   LRECLIN,WORK8
         A     0,#CHAROUT              ACCUMULATE TOTAL CHAR OUT
         ST    0,#CHAROUT
         LR    6,1                     PTR TO DATA
         LR    8,6                     PTR TO RECORD
         LR    10,7                    LENGTH OF RECORD
         TM    36(IN),X'80'
         BO    *+12                    NOT VARIABLE LENGTH
         LA    8,4(0,8)                PTR TO DATA
         SH    10,=H'4'
         CLI   PRNTPARM,C'B'
         BNE   SCANDONE                NOT BCD SCAN
         ZAP   SCNMXREC,MXRECERR
         L     3,PTRVALID
         BCTR  10,0                    LENGTH CODE
SCANNXT  EX    10,SCANBCD
         BNZ   SCANERR                 NON BCD CHAR FOUND
         SRDL  10,8                    LENGTH CODE TO REG 11
         SLA   10,8                    # CHAR REMAINING TO SCAN
         BZ    SCANDONE
         SRL   11,24                   # CHAR SCANNED MINUS 1
         LA    8,1(11,8)               PTR TO NEXT CHAR
         BCT   10,SCANNXT
SCANBCD  TRT   0(0,8),0(3)
SCANERR  UNPK  WORK(3),0(2,1)
         STC   2,0(,1)                 REPLACE NON-BCD CHAR
         LA    11,1(,1)                PTR TO NEXT CHAR
         LR    1,11
         SR    1,6                     OFFSET TO NON-BCD CHAR
         CVD   1,WORK8
         L     1,=A(PRINT)
         TM    48(1),X'10'
         BZ    SCNMSGDN                NO SYSPRINT DD
         CLI   PRNTPARM+1,C'A'
         BE    *+12                    PRINT ERROR MSG
         CLI   PRNTPARM+1,C'E'
         BNE   SCNMSGDN                NOT PRINT ERROR MSG
         SP    SCNMXREC,=P'1'
         BM    SCNMSGDN                MAX ERROR LINES PER RECORD
         OI    ERRFLAG,4
         PUT   (1)
         MVC   0(1,1),NXTLNCTL
         MVI   NXTLNCTL,C' '
         BCT   9,*+12                  COUNT LINES
         CVB   9,#LINES
         MVI   0(1),C'1'               NEW PAGE
         MVC   1(132,1),BLANKS
         MVC   1(33,1),=CL33'***      ! TH CHAR IS HEX **  ***'
         ED    4(8,1),WORK4
         TR    WORK(2),HEXTABLE-C'0'
         MVC   27(2,1),WORK            HEX DIGITS TO MSG
SCNMSGDN LR    1,11
         SR    1,8                     # CHAR SCANNED
         LR    8,11                    PTR TO NEXT CHAR TO BE SCANNED
         SR    10,1                    # CHAR TO BE SCANNED
         BNM   SCANNXT                 GO CONTINUE SCAN
SCANDONE EQU   *
         CLI   PRNTPARM,C'T'
         BNE   NOTXLATE
         L     3,PTRXLATE
         SRDA  10,8                    NR OF 256 BYTE SEGMENTS
         LTR   10,10
         BZ    *+18                      NONE
         TR    0(256,8),0(3)           TRANSLATE 256 CHARACTERS
         LA    8,256(0,8)              PTR TO NEXT RECORD SEGMENT
         BCT   10,*-10
         SRA   11,24                   RESIDUAL COUNT
         BZ    NOTXLATE                NONE LEFT
         BCTR  11,0                    RESIDUAL LENGTH CODE
         EX    11,TRNSLATE
NOTXLATE EQU   *
         TM    48(OUT),X'10'           CHECK IF SYSUT2 OPEN
         BZ    NOOUTPUT
         LR    8,6                     POINTER TO OUTPUT DATA
         LR    10,7                    LENGTH OF OUTPUT DATA
         TM    36(OUT),X'40'
         BZ    FIXLRECL                OUTPUT RECFM=F
         TM    36(OUT),X'80'
         BO    *+20                    OUTPUT RECFM=U
         TM    36(IN),X'80'
         BZ    *+12                    OUTPUT RECFM=V - INPUT RECFM=V
         OI    FIRSTSW,2               INDICATE CREATE V LENGTH REC
         LA    10,4(0,7)               INCREASE LRECL BY 4
         STH   10,82(0,OUT)            STORE LRECL FOR RECFM V OR U
         LH    1,62(0,OUT)             OUT BLKSIZE
         TM    36(OUT),X'80'
         BO    *+8                     OUT RECFM=U
         SH    1,=H'4'                 OUT RECFM=V BLKSIZE MINUS 4
         CR    10,1
         BNH   PUTOUT                  OK
         LR    10,1                      TOO HIGH -
         STH   10,82(0,OUT)                USE OUT BLKSIZE
         B     PUTOUT
FIXLRECL EQU   *
         TM    36(IN),X'80'
         BO    *+12
         SH    10,=H'4'                OUTPUT RECFM=F - INPUT RECFM=V
         LA    8,4(,8)                   DROP CONTROL CHARACTERS
         CH    10,82(0,OUT)            DATA LENGTH : LRECL OUT
         BNH   PUTOUT                    OK
         LH    10,82(0,OUT)              TOO HIGH - USE LRECL
PUTOUT   PUT   (OUT)
         TM    FIRSTSW,2
         BZ    *+24                    NOT CREATE V LENGTH REC
         SH    10,=H'4'
         MVC   0(2,1),82(OUT)          MOVE LRECL TO OUTPUT V REC
         XC    2(2,1),2(1)
         LA    1,4(0,1)
         BCTR  10,0
         EX    10,MOVEOUT              MOVE UP TO 256 CHAR
         SRDL  10,8
         LTR   10,10                   NR 256 BYTE SEGMENTS REMAINING
         BZ    *+34                      NONE
         SRL   11,24
         LA    1,1(11,1)
         LA    8,1(11,8)
         MVC   0(256,1),0(8)           MOVE 256 MORE CHAR
         LA    1,256(0,1)
         LA    8,256(0,8)
         BCT   10,*-14                 GO MOVE NEXT 256 CHAR
NOOUTPUT EQU   *
         CLI   PRNTPARM,C'H'
         BE    SETHEX
         TM    36(IN),X'80'
         BO    FRSTOUT                 NOT VARIABLE INPUT
         SH    7,=H'4'
         LA    6,4(0,6)                PTR TO DATA
         B     FRSTOUT
SETHEX   EQU   *
         LR    10,6                    SET FOR HEX PRINT
         AR    7,7                     TWICE AS MANY CHAR
         SPACE
FRSTOUT  EQU   *
         L     1,=A(PRINT)
         TM    48(1),X'10'             CHECK IF OPEN
         BO    *+16                    GO PRINT RECORD
         TM    ERRFLAG,1               PROCESSING ERROR REC
         BZ    NEXTGET                   NO - GO GET NEXT REC
         B     SYNADXIT                  YES - NO PRINT
         TM    ERRFLAG,1     HEX PRINT ERR REC ONLY
         BO    NEXTOUT                 PRINT ALL ERROR RECORDS
         CLC   PRNTPARM,=C'BE'
         BNE   *+12                    NOT ERROR MSG ONLY
         TM    ERRFLAG,4
         BNO   NEXTREC                 PRINT ERROR RECORD ONLY
         ZAP   MXTOTREC,MXTOTREC
         BH    *+16
         TM    48(OUT),X'10'
         BO    NEXTGET                 CONTINUE COPY
         B     EXITNOMO      MAX RECS PRINTED - NO COPY - ALL DONE
         SP    MXTOTREC,=P'1'
         SPACE
NEXTOUT  EQU   *
         L     1,=A(PRINT)
         PUT   (1)
         LR    8,1                     PTR TO PRINT BUFFER
         TM    ERRFLAG,1
         BO    *+22                    REC NR PRINTED FOR I-O ERROR
         CLI   PRNTPARM,C'L'
         BNE   *+14                    NOT LIST - PRINT REC NR
         MVC   1(22,8),BLANKS          LIST - REC NR NOT PRINTED
         B     *+16
         MVC   0(23,8),RECEDMSK
         ED    0(23,8),RECNR
         ZAP   RECNR,=P'0'
         ZAP   LRECLIN,=P'0'
         MVC   0(1,8),NXTLNCTL
         MVI   NXTLNCTL,C' '
         BCT   9,SAMEPAGE              LINE COUNT
         CVB   9,#LINES
         MVI   0(8),C'1'               PRINT CTL - SKIP TO CHAN 1
SAMEPAGE EQU   *
         MVC   123(10,8),BLANKS
         TM    ERRFLAG,1               PROCESSING ERROR RECORD
         BO    SYNADCOM
         CLI   PRNTPARM,C'H'
         BE    HEXLINE                 HEX PRINT
         L     2,=A(PRNTABLE)
         SH    7,=H'100'               -(100-#CHAR)
         BL    LASTLINE
         MVC   23(100,8),0(6)          FULL LINE
         TR    23(100,8),0(2)
         BZ    NEXTREC
         AP    CHARCTR,=P'100'
         LA    6,100(0,6)
         B     NEXTOUT
MOVEDATA MVC   23(0,8),0(6)
LASTLINE LA    1,99(0,7)               NR OF DATA BYTES MINUS 1
         EX    1,MOVEDATA              PARTIAL LINE
         TR    23(100,8),0(2)
         LA    8,1(1,8)                END OF DATA
         LA    6,BLANKS
         LPR   1,7                     100 - NR OF DATA BYTES
         BCTR  1,0                       MINUS 1
         EX    1,MOVEDATA              PAD WITH BLANKS
         SPACE
NEXTREC  EQU   *
         CH    9,=H'4'                 NEW PAGE IF WITHIN 4 LINES
         BH    NEXTSPC
         LA    9,1
         B     NEXTGET
NEXTSPC  EQU   *
         CLI   PRNTPARM+1,C'1'
         BE    NEXTGET                 SINGLE SPACE BETWEEN RECORDS
         MVI   NXTLNCTL,C'0'
         BCT   9,NEXTGET               COUNT EXTRA SPACE AND BRANCH
         SPACE
EXIT     EQU   *
         SR    1,1
         ST    1,MODPARM1              INDICATE EOF
         LH    0,SAVLRECL
         CLI   MODCODE,8
         BNE   MODINSED                GO BACK TO MOD RTN FOR INSERTS
         SPACE
EXITNOMO EQU   *
         L     1,=A(PRINT)
         TM    48(1),X'10'             CHECK IF OPEN
         BZ    EXIT1         PRINT NOT OPEN - NO END MSG
         PUT   (1)
         MVC   1(132,1),BLANKS
         MVC   0(L'ENDMSG,1),ENDMSG
         MVI   42(1),C'U'
         TM    36(IN),X'C0'
         BNM   *+32
         MVI   42(1),C'V'
         TM    36(IN),X'80'
         BZ    *+8
         MVI   42(1),C'F'
         TM    36(IN),X'10'
         BZ    *+8
         MVI   43(1),C'B'
         TM    36(IN),X'04'
         BZ    *+8
         MVI   44(1),C'A'
         TM    36(IN),X'02'
         BZ    *+8
         MVI   44(1),C'M'
         LH    0,82(0,IN)              LRECL
         CVD   0,WORK8
         ED    51(6,1),WORK3
         MVI   51(1),C'='
         LH    0,62(0,IN)              BLKSIZE
         CVD   0,WORK8
         ED    65(6,1),WORK3
         MVI   65(1),C'='
         ED    73(22,1),#IOERRS
         L     1,=A(PRINT)
         PUT   (1)
         MVC   1(132,1),BLANKS
         MVC   0(L'ENDMSG1,1),ENDMSG1
         L     1,=A(PRINT)
         PUT   (1)
         MVC   1(132,1),BLANKS
         MVC   0(L'ENDMSG2,1),ENDMSG2
         ED     1(10,1),RECCTR         RECORDS IN
         L     0,#CHAREAD
         CVD   0,WORK8
         ED    11(20,1),WORK8          CHARACTERS IN
         ED    33(10,1),RECINSRT       RECORDS INSERTED
         ED    44(10,1),RECDLETE       RECORDS DELETED
         ED    59(10,1),RECOUT         RECORDS OUT
         L     0,#CHAROUT
         CVD   0,WORK8
         ED    69(20,1),WORK8          CHARACTERS OUT
         CLOSE PRINT
EXIT1    EQU   *
         CLC   MODNAME,BLANKS
         BE    NOMODNM
         DELETE EPLOC=MODNAME
NOMODNM  EQU   *
         CLC   TRNAME,BLANKS
         BE    NOTRNM
         DELETE  EPLOC=TRNAME
NOTRNM   EQU   *
         CLOSE ((IN),,(OUT))
         LA    15,0
         TM    ERRFLAG,1
         BZ    *+8
GOBACK16 LA    15,16                   MAX I/O ERRORS OR NO SYSUT1
GOBACK   EQU   *
         L     13,SAVE13
         EXITLKG SAVE=SAVEAREA,FREE=512,RC=(15)
UT2EXIT  EQU   *
         OC    62(2,OUT),62(OUT)
         BNZ   *+10          OUTPUT BLKSIZE SPECIFIED
         MVC   62(2,OUT),62(IN)          NO - USE INPUT BLKSIZE
         OC    82(2,OUT),82(OUT)
         BNZ   *+10          OUTPUT LRECL SPECIFIED
         MVC   82(2,OUT),82(IN)          NO - USE INPUT LRECL
         OC    36(1,OUT),36(OUT)
         BNZ   *+10                    OUTPUT RECFM SPECIFIED
         MVC   36(1,OUT),36(IN)          NO - USE INPUT RECFM
         BR    14            RETURN
         SPACE
PRTEXIT  EQU   *
         OC    62(2,1),62(1)
         BCR   7,14          RETURN IF BLKSIZE SPECIFIED
         MVC   62(2,1),82(1) USE LRECL IF NOT
         BR    14            RETURN
NOINPUT  EQU   *
         L     1,=A(PRINT)
         TM    48(1),X'10'             CHECK IF OPEN
         BO    NOINPTMS
         WTO   'LISTUTIL - NO SYSUT1 DD'
         B     GOBACK16
NOINPTMS EQU   *
         PUT   (1)
         MVC   1(132,1),BLANKS
         MVC   0(23,1),=CL23' OPEN ERROR ON SYSUT1 '
         B     GOBACK16
ISERR    SYNADAF ACSMETH=QISAM
         OI    ERRFLAG,1               TURN ON ERR RTN FLAG
         STM   14,1,SAVE14
         B     FRSTOUT
         SPACE
PSERR    SYNADAF ACSMETH=QSAM
         OI    ERRFLAG,1               TURN ON ERR RTN FLAG
         STM   14,1,SAVE14
         B     FRSTOUT
         SPACE
SYNADCOM EQU   *
         TM    ERRFLAG,2
         BO    HEXLINE                 GO OUTPUT NEXT HEX LINE
         L     11,SAVE0
         L     1,SAVE1
         MVC   55(79,8),49(1)
         L     10,8(0,1)
         MVC   1(54,8),NODATA
         B     *+4(11)
         B     SYNADXIT                BYTES 8-13 CONTAIN BLANKS
         B     UNPACK
         B     SYNADXIT                SYNADAF NOT SUCCESSFUL
         SPACE
UNPACK   EQU   *
         ZAP   RECNR,RECCTR
         LH    11,12(0,1)
         CVD   11,0(0,8)
         MVI   0(8),C'0'               DOUBLE SPACE
         UNPK  1(4,8),5(3,8)           UNPACK NR OF CHAR READ
         MVZ   4(1,8),3(8)