         MACRO
&NAME    DBD   &NOSEGS=0
&NAME    CSECT
         DC    CL8'&NAME'          NAME OF THE DBD
         DC    F'&NOSEGS'
         MEND
