         MACRO
&NAME    PSB   &NOPCBS=0
&NAME    CSECT
         DC    CL8'&NAME'          NAME OF PSB
         DC    F'&NOPCBS'          NUMBER OF PCBS IN PSB
         DC    5F'0'               WORK AREA FOR PSB
         MEND
