         MACRO                                                          BM010560
&NAME    BBMESS &N                                                      BM010570
&NAME    MVC   DTBBEMSS(L'BBMESS&N),BBMESS&N MOVE MESSAGE TO LINE       BM010580
         MEND                                                           BM010590
