         MACRO                                                          PM011340
&NAME BLOCTABL &LIST                                                    PM011350
.*                                                                      PM011360
.*       CONSTRUCT TRANSLATE TABLE ( FOR USE WITH 'TRT' ) THAT WILL     PM011370
.*        LOCATE THE ELEMENTS IN THE SUPPLIED LIST                      PM011380
.*                                                                      PM011390
         LCLA  &N,&S                                                    PM011400
&N       SETA  N'&LIST                                                  PM011410
&NAME    DC    256X'00'            BASIC 'TRT' TABLE: IGNORE ALL        PM011420
         AIF   (&N EQ 0).EXIT                                           PM011430
.LOOP    ANOP                                                           PM011440
&S       SETA  &S+1                                                     PM011450
         AIF   (&S GT &N).ORG                                           PM011460
         ORG   &NAME.+C'&LIST(&S)' ORG TO VALUE TO BE LOCATED           PM011470
         DC    CL1'&LIST(&S)'      SET TO DETECT ENTRY WITH TRT         PM011480
         AGO   .LOOP                                                    PM011490
.ORG     ORG                                                            PM011500
.EXIT    ANOP                                                           PM011510
         MEND                                                           PM011520
