         MACRO                                                          BD007860
&NAME    CB05  &DUMMY                                                   BD007870
*********************************************************************** BD007880
*        FORMAT OF MS05 CONTROL BLOCK                                 * BD007890
*********************************************************************** BD007900
         SPACE 1                                                        BD007910
CB05NTRY DSECT                     BATCH CARD FIELD CHAIN ELEMENT       BD007920
CB05FLAG DS    0CL1                CONTROL BLOCK FLAG                   BD007930
CB05CB05 DS    F                   ADDRESS OF NEXT ASSOC CB05 ENTRY     BD007940
CB05CCNO DS    PL2                 CONTROL CARD SEQUENCE NUMBBER        BD007950
CB05FNO  DS    CL2                 FIELD NAME OR TEST ID                BD007960
CB05TID  DS    CL1                 INTERNAL CODE FOR TEST ID            BD007970
CB05PBCF DS    CL1                 POSN OF BATCH CARD TOTAL FIELD       BD007980
CB05LBCF DS    CL1                 LGTH OF BATCH CARD TOTAL FIELD       BD007990
CB05NDEC DS    PL1                 NO. OF (IMPLIED) DECIMALS            BD008000
CB05SW   DS    CL1                 SWITCH BYTE                          BD008010
CB05BVAL DS    PL8                 FIELD VALUE FROM BATCH CARD          BD008020
CB05BACC DS    PL8                 FIELD VALUE ACCUMULATED              BD008030
CB05LVAL DS    PL8                 LITERAL VALUE AGAINST WHICH TO BALNC BD008040
CB05NA1  DS    0CL32               HEADING LINES FOR FIELD A1           BD008050
CB05LNE1 DS    CL16                FIRST LINE OF NAME                   BD008060
CB05LNE2 DS    CL16                SECOND LINE OF NAME                  BD008070
CB05PNEG DS    CL1                 POSN OF -VE IDENTIFIER               BD008080
CB05LNEG DS    CL1                 LGTH OF -VE IDENTIFIER               BD008090
CB05IDNG DS    CL6                 LITERAL -VE IDENTIFIER               BD008100
CB05LGTH EQU   *-CB05NTRY          LENGTH OF CONTROL BLOCK              BD008110
         SPACE 5                                                        BD008120
SW05BAL  EQU   1                   ON=BALANCING / OFF=ALGEBRAIC         BD008130
SW05SOFT EQU   2                   ON=SOFT      / OFF=HARD              BD008140
SW05VALU EQU   4                   MS05 CONTAINED BALANCING VALUE       BD008150
SW05FLD  EQU   8                   FIELD ID                             BD008160
SW05TST  EQU   16                  TEST REQUEST                         BD008170
SW05NGID EQU   32                  SEPARATE NEGATIVE ID PRESENT         BD008180
SW05NGNZ EQU   64                  NON-ZERO FIELD AUTOMATICCALLY -VE    BD008190
SW05DPRT EQU   128                 ONLY PRINT TOTAL IF DISCREPANCY      BD008200
         MEND                                                           BD008210
