         MACRO                                                          PM008120
&NAME    COUNT &DCBSW,&NO                                               PM008130
.*                                                                      PM008140
.*       INCREMENT RECORD COUNTER IN DCBSW                              PM008150
.*                                                                      PM008160
         AIF   ('&NO' NE '0').A03                                       PM008170
&NAME    ZAP   &DCBSW.+IOPSRCNT(4),=P'0' ZEROISE LINE COUNT             PM008180
         MEXIT                                                          PM008190
.A03     ANOP                                                           PM008200
&NAME    AP    &DCBSW.+IOPSRCNT(4),=P'&NO' INCREMENT LINE COUNT         PM008210
         MEND                                                           PM008220
