         MACRO                                                          PM011640
&NAME    FLDTYPE &SOURCE,&DEST                                          PM011650
.*                                                                      PM011660
.*       GENERATE LINKAGE TO ROUTINE THAT CONVERTS CONTROL CARD         PM011670
.*        FIELD TYPE TO THE EQUIVALENT INTERNAL REPRESENTATION.         PM011680
.*                                                                      PM011690
&NAME    LA    R15,&SOURCE         POINT R15 AT THE SOURCE FIELD TYPE   PM011700
         LA    R1,&DEST            POINT R1 AT THE DESTINATION FIELD    PM011710
         CBAL  R4,BLDFTYP          CONVERT TO INTERNAL REPRESENTATION   PM011720
         MEND                                                           PM011730
