         MACRO                                                          PC000250
&NAME    GR01  &DUMMY                                                   PC000260
*********************************************************************** PC000270
*        FORMAT OF GR01 CONTROL CARD                                  * PC000280
*********************************************************************** PC000290
         SPACE 1                                                        PC000300
*        SPECIFIES THE REPORT HEADINGS -                                PC000310
*         1ST LINE : CARD 1                                             PC000320
*         2ND LINE : CARDS 2 & 3                                        PC000330
*         3RD LINE : CARDS 4 & 5                                        PC000340
GR01CARD DSECT                                                          PC000350
GR01ID   DS    CL4                 CARD ID ('GR01')                     PC000360
GR01CC   DS    CL1                 'BEFORE PRINT' CARRIAGE CONTROL CHAR PC000370
*                                   '0' - NO SPACE                      PC000380
*                                   '1' - SPACE 1 LINE ( DEFAULT )      PC000390
*                                   '2' - SPACE 2 LINES                 PC000400
*                                   '3' - SPACE 3 LINES                 PC000410
GR01LNE1 DS    CL75                1ST PART OF LINE                     PC000420
GR01LGTH EQU   *-GR01CARD          LENGTH OF DSECT                      PC000430
         MEND                                                           PC000440
