         MACRO                                                          PC002130
&NAME    GR07  &DUMMY                                                   PC002140
*********************************************************************** PC002150
*        FORMAT OF GR07 CONTROL CARD                                  * PC002160
*********************************************************************** PC002170
         SPACE 1                                                        PC002180
*        SPECIFY CALCULATIONS                                           PC002190
         SPACE 1                                                        PC002200
GR07CARD DSECT                                                          PC002210
GR07ID   DS    CL4                 CARD ID ('GR07')                     PC002220
GR07FID  DS    CL2                 FIELD NAME OR STATEMENT LABEL        PC002230
GR07CALC DS    0CL73               ARITHMETIC EXPRESSION                PC002240
GR07TEST DS    CL4                 TEST IDENTIFIER ('TEST')             PC002250
GR07FLD1 DS    CL2                 ID OF FIELD TO BE TEESTED            PC002260
GR07TTYP DS    CL2                 TEST TYPE (EQ/NE/LT/LE/GT/GE/ON/OF)  PC002270
GR07FLD2 DS    CL2                 ID OF COMPARAND                      PC002280
*                                   OR '$K' ( CURRENT KEY LEVEL )       PC002290
GR07FLD3 DS    CL2                 ID OF GR07 STATEMENT TO WHICH TO     PC002300
*                                   TRANSFER CONTROL IF TEST SATISFIED  PC002310
*                                   OR $1 -ACCUMULATE BUT DO NOT PRINT  PC002320
*                                   OR $2 - DO NOT ACCUMULATE OR PRINT  PC002330
GR07$LIT DS    CL61                LITERAL COMPARAND ( FOR $L )         PC002340
GR07TOTT DS    CL1                 PROCESSING TIME INDICATOR            PC002350
*                                   ' ' - PERFORM AT DETAIL TIME        PC002360
*                                   'D' - PERFORM AT DETAIL TIME        PC002370
*                                   'T' - PERFORM AT TOTAL TIME         PC002380
*                                   OR A/B/C/E PROCESSING TIME          PC002390
GR07LGTH EQU   *-GR07CARD          LENGTH OF DSECT                      PC002400
         SPACE 5                                                        PC002410
*        SPECIAL FUNCTION GR07 CARDS                                    PC002420
         SPACE 1                                                        PC002430
*        GR07LLDATEPPPTPPPT        CONVERT DATE FROM 1 FORMAT TO ANOTHE PC002440
*        GR07LLTIMEPPP             CONVERT EBCDIC HHMM (IN PPP) TO MINU PC002450
*        GR07LLAVE(XX)                                                  PC002460
*        GR07LLMAX(XX)                                                  PC002470
*        GR07LLMIN(XX)                                                  PC002480
*        GR07LLRMS(XX)             ROOT MEAN SQUARE                     PC002490
*        GR07LLSDEV(XX)            STANDARD DEVIATION                   PC002500
         SPACE 5                                                        PC002510
*        ANYTHING FOLLOWING A '/*' IS TREATED AS A COMMENT.             PC002520
         MEND                                                           PC002530
