         MACRO                                                          PC004150
&NAME    GR90  &DUMMY                                                   PC004160
*********************************************************************** PC004170
*        FORMAT OF GR90 CONTROL CARD                                  * PC004180
*********************************************************************** PC004190
         SPACE 1                                                        PC004200
*        DEFINE THE REQUIRED STATE OF UP TO 40 INDICATORS ( SET BY THE  PC004210
*         PARM OF BY SYSINB INPUT ) TO MAKE THE INCLUSION OF THE FILLOW PC004220
*         CONTROL CARDS CONDITIONAL AT EXECUTION TIME                   PC004230
         SPACE 1                                                        PC004240
GR90CARD DSECT                                                          PC004250
GR90ID   DS    CL4                 CARD ID ('GR90')                     PC004260
GR90UNU1 DS    CL6                 UNUSED                               PC004270
GR90INDS DS    CL40                INDICATOR STATUS                     PC004280
*                                   'Y' - MUST BE ON ('Y')              PC004290
*                                   'N' - MUST BE OFF ('N')             PC004300
*                                   ' ' - MAY BE EITHER ON OR OFF       PC004310
GR90UNU2 DS    CL30                UNUSED                               PC004320
GR90LGTH EQU   *-GR90CARD          LENGTH OF DSECT                      PC004330
         MEND                                                           PC004340
