         MACRO                                                          PC004650
&NAME    GR93  &DUMMY                                                   PC004660
*********************************************************************** PC004670
*        FORMAT OF GR93 CONTROL CARD                                  * PC004680
*********************************************************************** PC004690
         SPACE 1                                                        PC004700
*        SPECIFY STRING OF PARAMETER VALUES                             PC004710
         SPACE 1                                                        PC004720
*        ANY NUMBER OF GR93 CARDS MAY BE SUPPLIED, AND EACH MAY         PC004730
*         CONTAIN ONE OR MORE PARM VALUES SEPARATED BY COMMAS.  SINCE   PC004740
*         CONTROL CARDS ARE PROCESSED AFTER THE PARM STRING SUPPLIED    PC004750
*         IN THE EXEC STATEMENT, THESE VALUES OVERRIDE THE EXEC PARM.   PC004760
         SPACE 1                                                        PC004770
GR93CARD DSECT                                                          PC004780
GR93ID   DS    CL4                 CARD ID ( 'GR93' )                   PC004790
         DS    CL1                 UNUSED                               PC004800
GR93PARM DS    CL74                PARM STRING                          PC004810
GR93DELM DS    CL1                 DELIMITER ( ' ' )                    PC004820
GR93LGTH EQU   *-GR93CARD          LENGTH OF DSECT                      PC004830
         MEND                                                           PC004840
