         MACRO                                                          BD013420
&NAME  LOGLINE &DUMMY                                                   BD013430
*********************************************************************** BD013440
*        FORMAT OF BATCH LOG STATUS REPORT DETAIL LINE                * BD013450
*********************************************************************** BD013460
         SPACE 1                                                        BD013470
LLOGLINE DSECT                                                          BD013480
LLOGCC   DS    CL1                 CARRIAGE CONTROL CHARACTER           BD013490
LLOGBNO  DS    CL16                BATCH NUMBER                         BD013500
         DS    CL3                 UNUSED                               BD013510
LLOGMACC DS    CL8                 'ACCEPTED' MESSAGE                   BD013520
         DS    CL2                 UNUSED                               BD013530
LLOGMSUS DS    CL8                 'SUSPENSE' MESSAGE                   BD013540
         DS    CL3                 UNUSED                               BD013550
LLOGEDTE DS    CL9                 DATE BATCH ENTERED - REPORT FORMAT   BD013560
         DS    CL3                 UNUSED                               BD013570
LLOGADTE DS    CL9                 DATE BATCH ACCEPTED - RETORT FORMAT  BD013580
         DS    CL3                 UNUSED                               BD013590
LLOGRCNT DS    CL6                 COUNT OF RECORDS ENTERED             BD013600
         DS    CL5                 UNUSED                               BD013610
LLOGLCNT DS    CL6                 COUNT OF RECORDS RETRINED            BD013620
         DS    CL3                 UNUSED                               BD013630
LLOGHCNT DS    CL6                 COUNT OF HARD ERRORS                 BD013640
         DS    CL3                 UNUSED                               BD013650
LLOGSCNT DS    CL6                 COUNT OF SOFT ERRORS                 BD013660
         DS    CL4                 UNUDED                               BD013670
LLOGTYPE DS    CL8                 BATCH CARD TYPE ( CARD IDENTIFIER )  BD013680
         DS    CL3                 UNUSED                               BD013690
LLOGSUB  DS    CL10                SUBMITTOR ID                         BD013700
LLOHLGTH EQU   *-LLOGLINE          LENGTH OF DSECT                      BD013710
         MEND                                                           BD013720
