         MACRO                                                          BC007030
&NAME    MS36  &DUMMY                                                   BC007040
*********************************************************************** BC007050
*        FORMAT OF MS36 CONTROL CARD                                  * BC007060
*********************************************************************** BC007070
         SPACE 1                                                        BC007080
*        DEFINE A MATHEMATICAL OPERATION                                BC007090
         SPACE 1                                                        BC007100
MS36CARD DSECT                                                          BC007110
MS36ID   DS    CL4                 CARD ID ('MS36')                     BC007120
MS36TID  DS    CL2                 TEST ID ( LABEL )                    BC007130
MS36OPCD DS    CL1                 OPERATION (+ - / * )                 BC007140
MS36POS1 DS    CL3                 POSN OF 1ST FLD                      BC007150
MS36LEN1 DS    CL2                 LGTH OF 1ST FLD                      BC007160
MS36NDC1 DS    CL1                 NO OF DECIMAL PLACES IN 1ST OPERAND  BC007170
MS36TYP1 DS    CL1                 TYPE OF 1ST FLD ( 'P' OR ' ' )       BC007180
MS36POS2 DS    CL3                 POSN F SECOND FLD                    BC007190
*                                   OR 'LIT' IF MS36 CONTAINS LITERAL V BC007200
MS36LEN2 DS    CL2                 LGTH F SECOND FLD                    BC007210
MS36NDC2 DS    CL1                 NO OF DECIMAL PLACES IN 2ND OPERAND  BC007220
MS36TYP2 DS    CL1                 TYPE F SECOND FLD ( 'P' OR ' ' )     BC007230
MS36POS3 DS    CL3                 POSN OF RESULT FLD                   BC007240
MS36LEN3 DS    CL2                 LGTH OF RESULT FLD                   BC007250
MS36NDC3 DS    CL1                 NO OF DECIMAL PLACES IN RESULT FLD   BC007260
MS36TYP3 DS    CL1                 TYPE OF RESULT FLD ( 'P' OR ' ' )    BC007270
MS36RNDN DS    CL1                 NO OF DIGITD TO BE ROUNDED           BC007280
*                                   OR 'N' - SUPPRESS ALL ROUNDING      BC007290
MS36LIT  DS    CL16                RIGHT JUSTIFIED NUMERIC LITERAL (OP2 BC007300
MS36POS4 DS    CL3                 POSN OF REMAINDER                    BC007310
MS36LEN4 DS    CL2                 LGTH OF REMAINDER                    BC007320
MS36NDC4 DS    CL1                 NO OF DECIMAL PLACES IN REMAINDER    BC007330
MS36TYP4 DS    CL1                 TYPE OF REMAINDER ( 'P' OR ' ' )     BC007340
         DS    CL28                UNUSED                               BC007350
MS36LGTH EQU   *-MS36CARD          LENGTH OF DSECT                      BC007360
         MEND                                                           BC007370
