         MACRO                                                          BC008040
&NAME    MS41  &DUMMY                                                   BC008050
*********************************************************************** BC008060
*        FORMAT OF MS41 CONTROL CARD                                  * BC008070
*********************************************************************** BC008080
         SPACE 1                                                        BC008090
*        INDICATES THE END OF A 'SUB-ROUTINE'                           BC008100
         SPACE 1                                                        BC008110
MS41CARD DSECT                                                          BC008120
MS41ID   DS    CL4                 CARD ID ('MS41')                     BC008130
MS41RID  DS    CL2                 SUBROUTINE NAME ( LABEL )            BC008140
         DS    CL74                UNUSED                               BC008150
MS41LGTH EQU   *-MS41CARD          LRNGTH OF DSECT                      BC008160
         MEND                                                           BC008170
