         MACRO                                                          BM010490
&NAME    MVCD  &DISP,&FLD                                               BM010500
         LCLC  &L                                                       BM010510
&L       SETC  'L'''                                                    BM010520
&NAME    MVC   &DISP.(&L&FLD,R5),&FLD 0ADD MESSAGE TO LINE              BM010530
         MEND                                                           BM010540
