         MACRO                                                          PM013080
&NAME    NULCB &CB,&LABEL                                               PM013090
.*                                                                      PM013100
.*       TEST IF THE CURRENT CONTROL BLOCK HAS BEEN NULLIFIED, AND      PM013110
.*        GO TO THE SPECIFIED LABEL IF SO.                              PM013120
.*                                                                      PM013130
&NAME    CLI   &CB.ID,NULLCB       TEST IF CONTROL BLOCK IS NULLIFIED   PM013140
         BE    &LABEL              BR IF YES TO BYPASS PROCESSING       PM013150
         MEND                                                           PM013160
