         MACRO                                                          BM010940
&NAME    PL    &PPLL,&IN,&OUT                                           BM010950
&NAME    LA    R2,&IN 0            POINT AT EBCDIC FIELDS               BM010960
         LA    R3,&OUT 0           POINT AT BINARY PL                   BM010970
         CBAL  R4,&PPLL.PL 0       CONVERT EBCDIC TO BINARY PL          BM010980
         MEND                                                           BM010990
