         MACRO                                                          PD011650
&NAME    RST   &DUMMY                                                   PD011660
*********************************************************************** PD011670
*        RST - RECORD SELECTION TEST                                  * PD011680
**********************************************************************  PD011690
         SPACE 1                                                        PD011700
RSTNTRY  DSECT                                                          PD011710
RSTID    DS    0CL1                CONTROL BLOCK IDENTIFIER             PD011720
RSTRST   DS    F                   ADDRESS OF NEXT RST                  PD011730
RSTSCE   DS    F                   ADDRESS OF 1ST ASSOC SCE             PD011740
RSTRCNT  DS    PL4                 NO OF RECORDS SELECTED BY THIS TEST  PD011750
RSTSW    DS    CL1                 SWITCH BYTE                          PD011760
RSTLGTH  EQU   *-RSTNTRY           LENGTH OF DSECT                      PD011770
         SPACE 5                                                        PD011780
MRSTDEL  EQU   1                   REJECT RECORD IF ALL TESTS SATISFIED PD011790
         MEND                                                           PD011800
