         MACRO                                                          BM011280
&NAME    TEST  &T,&FLD                                                  BM011290
.*                                                                      BM011300
.*       PERFORM ANY REQUIRED TEST ( THAT IS DEFINED IN A 'SFXX' LABEL  BM011310
.*        UPON A FILED IN A CONTROL RECORD.                             BM011320
.*                                                                      BM011330
         LCLA  &LL                                                      BM011340
         LCLC  &RT                                                      BM011350
&RT      SETC  '&FLD'(1,4)                                              BM011360
&NAME    LA    R1,&FLD.-&RT.CARD ^ SET R1 TO DISPLACEMENT OF FIELD      BM011370
         LA    R1,1(,R1) ^         INCREMENT DIPLACEMENT TO POSN        BM011380
         STC   R1,FLDP ^           PRESERVE POSN OF FIELD TO B E TESTED BM011390
&LL      SETA  L'&FLD                                                   BM011400
         LA    R1,&LL ^            SET R1 TO LENGTH OF FIELD            BM011410
         STC   R1,FLDL ^           PRESERVE LENGTH OF FIELD             BM011420
         LA    R3,FLDP ^           POINT R3 AT FIELD'S PL               BM011430
         SR    R1,R1 ^             ZEROISE REGISTER 1                   BM011440
         IC    R1,SF&T ^           ESTABLISH TEST REQUIRED              BM011450
         CBAL  R4,TESTSEL ^        PERFORM REQUIEED TEST                BM011460
         MEND                                                           BM011470
