         MACRO                                                          PD017640
&NAME    TRD   &DUMMY                                                   PD017650
*********************************************************************** PD017660
*        TRD - TWENTY80 REPORT DEFINITION                             * PD017670
*********************************************************************** PD017680
         SPACE 1                                                        PD017690
TRDNTRY  DSECT                                                          PD017700
TRDID    DS    0CL1                CONTROL BLOCK IDENTIFIER             PD017710
TRDTRD   DS    F                   ADDRESS OF NEXT TRD                  PD017720
TRDRAE   DS    F                   ADDRESS OF 1ST ASSOCIATED RAE        PD017730
TRDLIB   DS    F                   ADDRESS OF LIB OF FIELD TO STUDY     PD017740
TRDLIBA  DS    F                   ADDRESS OF LIB OF FIELD TO ACCUMULAT PD017750
TRDOCB   DS    F                   ADDRESS OF ASSOCIATED OCB            PD017760
TRDPOSN  DS    F                   ADDRESS OF NEXT OUTPUT FIELD         PD017770
TRDTVAL  DS    CL8                 CUMULATIVE FILE TOTAL OF VALUES      PD017780
TRDKVAL  DS    CL8                 CUMULATIVE TOTAL FOR MAJOR KEY       PD017790
TRDCVAL  DS    CL8                 ACCUMULATOR FOR RAE PROCESSING       PD017800
TRDLBND  DS    CL8                 LOWER BOUND OF CURRENT RAE           PD017810
TRDCNO   DS    PL4                 ACCUMULATOR FOR RAE PROCESSING       PD017820
TRDTNO   DS    PL4                 NO OF ENTRIES ON FILE                PD017830
TRDKNO   DS    PL4                 NO OF ENTRIES WITHIN MAJOR KEY       PD017840
TRDLAB   DS    CL2                 LABEL OF FIELD TO STUDY              PD017850
TRDLABA  DS    CL2                 LABEL OF FIELD TO ACCUMULATE         PD017860
TRDRID   DS    CL2                 LABEL OF ASSOCIATED OCB              PD017870
TRDDESC  DS    CL30                DESCRIPTION OF VARIABLE              PD017880
TRDSW    DS    CL1                 SWITCH BYTE                          PD017890
TRDLGTH  EQU   *-TRDNTRY           LENGTH OF DSECT                      PD017900
         SPACE 5                                                        PD017910
MTRDNOLO EQU   1                   DO NOT INCLUDE LOWER BOUND IN LINE   PD017920
         MEND                                                           PD017930
