         MACRO                                                          BM011490
&NAME    TSEL  &TEST,&CB                                                BM011500
.*       SET UP LINKAGE FOR TESTSEL ROUTINE                             BM011510
         AIF   ('&CB' EQ '').A01                                        BM011520
&NAME    L     R1,&CB 0            GET ADDRESS OF ASSOC C/B             BM011530
         SLL   R1,8 0              ALTER '00AAAAAA' TO 'AAAAAA00'       BM011540
         IC    R1,&TEST 0          ADD INTERNAL TEST ID TO R1           BM011550
         AGO   .A02                                                     BM011560
.A01     ANOP                                                           BM011570
&NAME    IC    R1,&TEST 0          ADD INTERNAL TST ID TO R1            BM011580
.A02     ANOP                                                           BM011590
         CBAL  R4,TESTSEL 0        PERFORM SELECTED TEST                BM011600
         MEND                                                           BM011610
