         MACRO                                                          BD012410
&NAME URTNPARM &DUMMY                                                   BD012420
*********************************************************************** BD012430
*        FORMAT OF USER ROUTINE PARAMETER AREA                        * BD012440
*********************************************************************** BD012450
         SPACE 1                                                        BD012460
*        NOTE THAT THIS AREA IS IMMEDIATELY PRECEDED BY THE INPUT       BD012470
*         RECORD IMAGE.                                                 BD012480
*                                                                       BD012490
*        NOTE ALSO THAT THIS COMPOSITE AREA IS USED BY BASIC BUDGIE     BD012500
*         REGARDLESS OF WHETHER OR NOT USER MODULES ARE SPECIFIED.      BD012510
*         THE INPUT RECORD IMAGE IS LEFT UNMODIFIED, AND ALL EDITING    BD012520
*         AND INSERTION TAKES PLACE IN THE 'OUTPUT' AREA. THUS WHEN THE BD012530
*         USER RECEIVES CONTROL, THE OUTPUT AREA ARREADY CONTAINS VALID BD012540
*         DATA.                                                         BD012550
         SPACE 1                                                        BD012560
URTNPARM DSECT                     LINKAGE AREA                         BD012570
URTNCSW  DS    CL1                 CALL SWITCH:  1 - INITIALISE         BD012580
*                                                2 - BATCH CARD         BD012590
*                                                3 - DETAIL CARD        BD012600
*                                                4 - END                BD012610
*                                                5 - CALLED BY R5 OPCDE BD012620
*                                                6 - END OF BATCH       BD012630
URTNRSW1 DS    CL1                 RETURN CODE:  0 - RECORD OK          BD012640
*                                                1 - REJECT BATCH       BD012650
*                                                2 - DELETE RECORD ONLY BD012660
URTNRSW2 DS    CL1                 RETURN CODE:  0 - FINISHED WITH RECD BD012670
*                                               ^0 - PASS RECORD AGAIN  BD012680
URTNMESS DS    CL30                ERROR MESSAGE                        BD012690
URTNPOS  DS    CL2                 POSITION OF FIELD IN ERROR           BD012700
URTNLEN  DS    CL2                 LENGTH OF FIELD IN ERROR             BD012710
URTNOUT  DS    CL1                 OUTPUT RECORD - UNLIMITED LENGTH     BD012720
*                                  ... OPTIONALLY FOLLOWED BY WORK AREA BD012730
         MEND                                                           BD012740
