         MACRO                                                          BM008170
&NAME    COUNT &DCBSW,&NO                                               BM008180
.*                                                                      BM008190
.*       INCREMENT RECORD COUNTER IN DCBSW                              BM008200
.*                                                                      BM008210
         AIF   ('&NO' NE '0').A03                                       BM008220
&NAME    ZAP   &DCBSW.+IOPSRCNT(4),=P'0' ZEROISE LINE COUNT             BM008230
         MEXIT                                                          BM008240
.A03     ANOP                                                           BM008250
&NAME    AP    &DCBSW.+IOPSRCNT(4),=P'&NO' INCREMENT LINE COUNT         BM008260
         MEND                                                           BM008270
