         MACRO                                                          BM000020
&NAME    IOM   &SUBTYPE,&PARM1,&PARM2,&PARM3,&PARM4,                   *BM000030
               &TYPE=,&LOOP=,&RTN=,&MSGID=,&AUTOPEN=                    BM000040
.*                                                                      BM000050
.*       EQUATES,MAXDD                                                  BM000060
.*                                                                      BM000070
.*       DCBSW,DDNAME,DCBNAME,INPUT ,MANDAT                             BM000080
.*       DCBSW,DDNAME,DCBNAME,OUTPUT,MANDAT                             BM000090
.*       DCBSW,DDNAME,DCBNAME,PRINT,MANDAT                              BM000100
.*                                                                      BM000110
.*       PUT,DCBSW,(REG),PRINT,LNECNT,RTN=HEADING                       BM000120
.*                                                                      BM000130
.*       PUTM,DCBSW,(REG)                                               BM000140
.*                                                                      BM000150
.*       GET,DCBSW,(REG)                                                BM000160
.*                                                                      BM000170
.*       GETM,DCBSW,(REG)                                               BM000180
.*                                                                      BM000190
.*       OPEN,TYPE=DEF                                                  BM000200
.*       CLOSE,TYPE=DEF                                                 BM000210
.*       TIOTSCAN,TYPE=DEF                                              BM000220
.*                                                                      BM000230
.*       OPEN,DCBSW,LOOP=1,RTN=OPEN                                     BM000240
.*       OPEN,DCBSW,LOOP=N,RTN=NAME                                     BM000250
.*                                                                      BM000260
.*       CLOSE,DCBSW,LOOP=1,RTN=CLOSE                                   BM000270
.*       CLOSE,DCBSW,LOOP=N,RTN=NAME                                    BM000280
.*                                                                      BM000290
.*       TIOTSCAN,DCBSW,LOOP=1,RTN=TIOTSCAN                             BM000300
.*       TIOTSCAN,DCBSW,LOOP=N,RTN=NAME                                 BM000310
.*                                                                      BM000320
.*       SUMMARY,DCBSW,(REG),PRESENT,RTN=NAME,LOOP=N                    BM000330
.*                                                                      BM000340
.*       AUDIT,DCBSW,(REG),ENDJOB,RTN=NAME,LOOP=N                       BM000350
.*                                                                      BM000360
.*       EOF,DCBSW,BUFF-ADDR                                            BM000370
.*                                                                      BM000380
.*       BLKSZRTN,TYPE=DEF                                              BM000390
.*                                                                      BM000400
.*       IOERROR,(REG),PRINTRTN,EOJRTN,TYPE=DEF                         BM000410
.*                                                                      BM000420
.*       ISRANDOM,DCBSW-ADDR,KEY-ADDR                                   BM000430
.*                                                                      BM000440
         GBLC  &OPEN                                                    BM000450
         LCLA  &MAXDD                                                   BM000460
         LCLC  &BIT0,&BIT1,&DCB                                         BM000470
         LCLC  &BIT8                                                    BM000480
         LCLC  &B,&D                                                    BM000490
         LCLA  &BA,&DA                                                  BM000500
         LCLC  &LABEL,&RTNE,&REG                                        BM000510
         LCLC  &EOJRTNE                                                 BM000520
         LCLC  &LNECNT                                                  BM000530
.*                                                                      BM000540
.*                                                                      BM000550
.*       DETERMINE IF AUTOPEN WAS SPECIFIED                             BM000560
.*                                                                      BM000570
         AIF   ('&AUTOPEN' EQ '').A00                                   BM000580
&OPEN    SETC  'Y'                                                      BM000590
         AIF   ('&AUTOPEN' EQ 'YES').A00                                BM000600
&OPEN    SETC  'N'                                                      BM000610
         AIF   ('&AUTOPEN' EQ 'NO').A00                                 BM000620
         MNOTE 4,'UNKNOWN ''AUTOPEN'' SPECIFICATION - TREATED AS NO'    BM000630
.A00     ANOP                                                           BM000640
         AIF   ('&SUBTYPE' NE 'EQUATES').B00                            BM000650
IOSWMAND EQU   128 0               DDNAME MANDATORY                     BM000660
IOSWINPT EQU   64 0                INPUT DATA SET (DEFAULT)             BM000670
IOSWOUTP EQU   191 0               OUTPUT DATA SET            (NI ONLY) BM000680
IOSWPRES EQU   32 0                DDNAME PRESENT                       BM000690
IOSWOPEN EQU   16 0                DCB NOW OPEN                         BM000700
IOSWCLOS EQU   239 0               CLOSE DCB                  (NI ONLY) BM000710
IOSWEOF  EQU   8 0                 EOF DETECTED                         BM000720
IOSWIOER EQU   4 0                 I/O ERROR DETECTED                   BM000730
IOSWOPNH EQU   2 0                 DCB HAS BEEN OPENED                  BM000740
IOSWEOP  EQU   1 0                 PRINT DATA SET WITH EOP ROUTINE      BM000750
IOPSSW   EQU   0                   DISPLACEMENT OF SWITCH BYTE          BM000760
IOPSEOD  EQU   1 ^                 DISPLACEMENT OF EOD INDICATOR        BM000770
IOPSISI  EQU   2 ^                 DISPLACEMENT OF IS STATUS FLAG       BM000780
IOPSDCB  EQU   4                   DISPLACEMENT OF DCB ADDRESS          BM000790
IOPSDDN  EQU   8                   DISPLACEMENT OF DDNAME               BM000800
IOPSRECA EQU   16                  DISPLACEMENT OF RECORD ADDRESS       BM000810
IOPSRCNT EQU   20 ^                DISPLACEMENT OF RECORD COUNT         BM000820
IOPSR4SA EQU   24 ^                DISPLACEMENT OF R4 SAVE AREA         BM000830
IOPSLGTH EQU   28                  LENGTH OF DCBSW C/B                  BM000840
         AIF   ('&PARM1' EQ '').A02                                     BM000850
         AIF   (T'&PARM1 NE 'N').A01                                    BM000860
&MAXDD   SETA  &PARM1                                                   BM000870
IOMMAXDD EQU   &MAXDD 0            MAX NO. OF DD STATEMENTS             BM000880
         AGO   .A02                                                     BM000890
.A01     MNOTE 4,'MAX NO OF DD STATEMENTS IS NON-NUMERIC'               BM000900
.A02     AIF   ('&PARM2' NE '').A03                                     BM000910
         AIF   ('&PARM3' NE '').A03                                     BM000920
         AIF   ('&PARM4' NE '').A03                                     BM000930
         AIF   ('&TYPE' NE '').A03                                      BM000940
         AIF   ('&LOOP' NE '').A03                                      BM000950
         AIF   ('&RTN' NE '').A03                                       BM000960
         AGO   .A04                                                     BM000970
.A03     MNOTE *,'THE SUPERFLUOUS OPERANDS CODED WERE IGNORED'          BM000980
.A04     MEXIT                                                          BM000990
.B00     AIF   ('&SUBTYPE' NE 'DCBSW').C00                              BM001000
         AIF   ('&PARM1' NE '').B01                                     BM001010
         MNOTE 16,'NO DDNAME SUPPLIED FOR DCBSW OPERATION'              BM001020
         MEXIT                                                          BM001030
.B01     AIF   ('&PARM2' NE '').B02                                     BM001040
&DCB     SETC  '&PARM1'                                                 BM001050
         MNOTE *,'NO DCB NAME SUPPLIED - DDNAME ASSUMED'                BM001060
         AGO   .B03                                                     BM001070
.B02     ANOP                                                           BM001080
&DCB     SETC  '&PARM2'                                                 BM001090
.B03     ANOP                                                           BM001100
&BIT0    SETC  '0'                                                      BM001110
&BIT1    SETC  '1'                                                      BM001120
&BIT8    SETC  '0'                                                      BM001130
         AIF   ('&PARM3' EQ '').B04                                     BM001140
         AIF   ('&PARM3' EQ 'INPUT').B05                                BM001150
         AIF   ('&PARM3' EQ 'PRINT').B20                                BM001160
         AIF   ('&PARM3' NE 'OUTPUT').B10                               BM001170
&BIT1    SETC  '0'                                                      BM001180
         AGO   .B05                                                     BM001190
.B20     ANOP                                                           BM001200
&BIT8    SETC  '1'                                                      BM001210
&BIT1    SETC  '0'                                                      BM001220
         AGO   .B05                                                     BM001230
.B04     MNOTE *,'I/O TYPE NOT SPECIFIED - INPUT ASSUMED'               BM001240
.B05     AIF   ('&PARM4' EQ '').B06                                     BM001250
         AIF   ('&PARM4' NE 'MANDAT').B10                               BM001260
&BIT0    SETC  '1'                                                      BM001270
         AGO   .B07                                                     BM001280
.B06     MNOTE *,'DD STATEMENT IS OPTIONAL'                             BM001290
.B07     ANOP                                                           BM001300
&B       SETC  '00000'                                                  BM001310
         CNOP  0,4 0               ENSURE CORRECT ALIGNMENT             BM001320
&B       SETC  '&BIT0&BIT1.00000&BIT8'                                  BM001330
&NAME    DC    B'&B',C'X  ',V(&DCB),CL8'&PARM1',A(0),PL4'0',A(0)        BM001340
         AIF   ('&TYPE' NE '').A03                                      BM001350
         AIF   ('&LOOP' NE '').A03                                      BM001360
         AIF   ('&RTN' NE '').A03                                       BM001370
         MEXIT                                                          BM001380
.B10     MNOTE 16,'UNKNOWN POSITIONAL PARAMETER'                        BM001390
         MEXIT                                                          BM001400
.*                                                                      BM001410
.*                                                                      BM001420
.*       IOM   PUT,DCBSW (,(REG) (,PRINT) (,LNECNT) (,RTN=HEADING)      BM001430
.*                                                                      BM001440
.*       IOM   GET,DCBSW (,(REG))                                       BM001450
.*                                                                      BM001460
.C00     AIF   ('&SUBTYPE' EQ 'PUT').C01                                BM001470
         AIF   ('&SUBTYPE' NE 'GET').D00                                BM001480
.C01     AIF   ('&PARM1' NE '').C021                                    BM001490
.C011    MNOTE 16,'MANDATORY DCBSW ADDRESS NOT SUPPLIED'                BM001500
         MEXIT                                                          BM001510
.C021    ANOP                                                           BM001520
&NAME    TM    &PARM1.+IOPSSW,IOSWPRES 0IS DD STATEMENT PRESENT         BM001530
         BZ    IOMC&SYSNDX 0       BYPASS I/O IF NO DD STATEMENT        BM001540
         AIF   ('&OPEN' EQ 'N').C100                                    BM001550
         TM    &PARM1.+IOPSSW,IOSWOPEN 0 TEST IF DCB OPEN               BM001560
         BO    IOME&SYSNDX 0       BRANCH IF OPEN                       BM001570
         ST    R4,&PARM1.+IOPSR4SA 0 PRESERVE R4 RETUR  ADDRESS         BM001580
         LA    R2,&PARM1 ^         POINT R2 AT DCBSW                    BM001590
         CBAL  R4,OPEN 0           OPEN DATA SET                        BM001600
         L     R4,&PARM1.+IOPSR4SA 0 RESTORE SAVED R4 VALUE             BM001610
IOME&SYSNDX EQU * 0                BYPASS OPEN PROCESSING               BM001620
.C100    ANOP                                                           BM001630
         AIF   ('&SUBTYPE' NE 'GET').C023                               BM001640
         TM    &PARM1.+IOPSSW,IOSWEOF 0TEST FOR END OF FILE ALREADY     BM001650
         BO    IOMC&SYSNDX 0       BR IF EOF ALREADY REACHED            BM001660
.C023    ANOP                                                           BM001670
         AIF   ('&SUBTYPE' NE 'PUTM').C024                              BM001680
         LR    R0,&REG ^           POINT R0 AT DATA                     BM001690
         L     R1,&PARM1.+IOPSDCB ^POINT R1 AT DCB ADDRESS              BM001700
         L     R15,48(0,R1) ^      LOAD PUT ROUTINE ADDRESS             BM001710
         BALR  R14,R15 ^           LINK TO PUT ROUTINE                  BM001720
         AGO   .C05                                                     BM001730
.C024    ANOP                                                           BM001740
         AIF   ('&SUBTYPE' NE 'GETM').C025                              BM001750
         L     R1,&PARM1.+IOPSDCB ^POINT R1 AT DCB ADDRESS              BM001760
         LR    R0,&REG ^           POINT R0 AT DESTINATION              BM001770
         L     R15,48(0,R1) ^      LOAD GET ROUTINE ADDRESS             BM001780
         BALR  R14,R15 ^           LINK TO GET ROUTINE                  BM001790
         AGO   .C05                                                     BM001800
.C025    ANOP                                                           BM001810
         AIF   ('&PARM3' NE 'PRINT' OR '&RTN' NE'').C022                BM001820
IOMD&SYSNDX EQU * 0                LOOP BACK FOR EOP POOCESSING         BM001830
.C022    ANOP                                                           BM001840
         L     R1,&PARM1.+IOPSDCB ^POINT R1 AT DCB ADDRESS              BM001850
         L     R15,48(,R1) 0       GET I/O RTN ADDRESS                  BM001860
         BALR  R14,R15 ^           LINK TO I/O ROUTINE                  BM001870
         ST    R1,&PARM1.+IOPSRECA STORE BUFFER ADDRESS                 BM001880
         AIF   ('&PARM2' EQ '').C05                                     BM001890
         AIF   ('&PARM2'(1,1) EQ '(').C04                               BM001900
.C031    MNOTE 16,'INVALID REGISTER SPECIFICATION FOR &SUBTYPE'         BM001910
         MEXIT                                                          BM001920
.C04     LR    &PARM2(1),R1 0      SET BUFFER ADDRESS IN WORK REGISTER  BM001930
.C05     AP    &PARM1.+IOPSRCNT(4),=P'1' 0 INCREMENT RECORD COUNT       BM001940
         AIF   ('&PARM3' NE 'PRINT').C9                                 BM001950
&LNECNT  SETC  '&PARM4'                                                 BM001960
         AIF   ('&PARM4' NE '').C6                                      BM001970
         MNOTE *,'NO LINE COUNT SUPPLIED - 60 ASSUMED'                  BM001980
&LNECNT  SETC  '60'                                                     BM001990
.C6      CP    &PARM1.+IOPSRCNT(4),=P'&LNECNT' 0TEST FOR END OF PAGE    BM002000
         BL    IOMC&SYSNDX 0       BRANCH IF NOT                        BM002010
         ZAP   &PARM1.+IOPSRCNT(4),=P'0' 0 ZEROISE LINE COUNT           BM002020
         AIF   ('&RTN' NE '').C7                                        BM002030
         MNOTE *,'NO EOP ROUTINE SUPPLIED - PAGE SKIP FORCED'           BM002040
         MVI   0(R1),PAGESKIP 0    ESTABLISH PAGE SKIP                  BM002050
         B     IOMD&SYSNDX 0       SKIP TO NEW PAGE                     BM002060
.C62     ANOP                                                           BM002070
IOMC&SYSNDX EQU * 0                END OF ROUTINE                       BM002080
.C8      AIF   ('&TYPE' NE '').A03                                      BM002090
         AIF   ('&LOOP' NE '').A03                                      BM002100
         MEXIT                                                          BM002110
.C7      ST    R4,IOMD&SYSNDX 0    PRESERVE RETURN ADDRESS              BM002120
         CBAL  R4,&RTN 0           PERFORM HEADING ROUTINE              BM002130
         L     R4,IOMD&SYSNDX 0    RESTORE RETURN ADDRESS               BM002140
         B     IOMC&SYSNDX 0       BRANCH OVER SAVE AREA                BM002150
IOMD&SYSNDX DS F 0                 SAVE AREA FOR R4                     BM002160
IOMC&SYSNDX EQU * 0                END OF ROUTINE                       BM002170
         AGO   .C8                                                      BM002180
.C9      ANOP                                                           BM002190
IOMC&SYSNDX EQU * 0                 END OF ROUTINE                      BM002200
         AIF   ('&PARM3' NE '').A03                                     BM002210
         AIF   ('&PARM4' NE '').A03                                     BM002220
         AIF   ('&TYPE' NE '').A03                                      BM002230
         AIF   ('&LOOP' NE '').A03                                      BM002240
         AIF   ('&RTN' NE '').A03                                       BM002250
         MEXIT                                                          BM002260
.D00     AIF   ('&SUBTYPE' NE 'OPEN').E00                               BM002270
         AIF   ('&TYPE' EQ '').D04                                      BM002280
         AIF   ('&TYPE' EQ 'DEF').D02                                   BM002290
.D01     MNOTE 16,'UNKNOWN TYPE OPERAND'                                BM002300
         MEXIT                                                          BM002310
.*                                                                      BM002320
.*                                                                      BM002330
.*       IOM   OPEN,DCBSW-ADDR (,LOOP=N) (,RTN=AAA)                     BM002340
.*                                                                      BM002350
.D02     ANOP                                                           BM002360
&LABEL   SETC  'OPEN'                                                   BM002370
         AIF   ('&NAME' EQ '').D03                                      BM002380
&LABEL   SETC  '&NAME'                                                  BM002390
.D03     ANOP                                                           BM002400
&LABEL   DS    0H 0                ENTRY TO OPEN SUBROUTINE             BM002410
         L     R1,IOPSDCB(,R2) 0   GET DCB ADDRESS                      BM002420
         TM    IOPSSW(R2),IOSWPRES TEST IF DD STATEMENT PRESENT         BM002430
         BNO   0(R4) 0             RETURN IF NOT                        BM002440
         TM    IOPSSW(R2),IOSWOPEN 0 TEST IF DATA SET OPEN              BM002450
         BO    0(R4) 0             RETURN IF DATA STE OPEN              BM002460
         CNOP  0,4 0               ENSURE CORRECT ALIGNMENT             BM002470
         ST    R1,*+8 0            STORE DCB ADDRESS                    BM002480
         BAL   R1,*+8 ^            LOAD REG 1 WITH LIST ADDRESS         BM002490
         DC    A(0) 0              DCB ADDRESS                          BM002500
         TM    IOPSSW(R2),IOSWINPT 0 TEST IF INPUT                      BM002510
         BO    IOMD&SYSNDX 0       BRANCH IF YES                        BM002520
         MVI   0(R1),143 0         SET OPTION BYTE FOR INPUT            BM002530
         B     *+8 0               GO TO SVC                            BM002540
IOMD&SYSNDX MVI 0(R1),128 ^        SET OPTION BYTE                      BM002550
         SVC   19 0                ISSUE OPEN SVC                       BM002560
         OI IOPSSW(R2),IOSWOPEN+IOSWOPNH INDICATE DATA SET OPEN         BM002570
         MVI   IOPSEOD(R2),C'X' ^  RESET EOD INDICATOR IF NECESSARY     BM002580
         BR    R4 0                RETURN TO MAIN-LINE                  BM002590
.D031    AIF   ('&PARM1' NE '').A03                                     BM002600
         AIF   ('&PARM2' NE '').A03                                     BM002610
         AIF   ('&PARM3' NE '').A03                                     BM002620
         AIF   ('&PARM4' NE '').A03                                     BM002630
         AIF   ('&LOOP' NE '').A03                                      BM002640
         AIF   ('&RTN' NE '').A03                                       BM002650
         MEXIT                                                          BM002660
.D04     AIF   ('&PARM1' EQ '').C011                                    BM002670
         AIF   ('&LOOP' EQ '').D05                                      BM002680
&NAME    LA    R10,&LOOP 0         ESTABLISH LOOP                       BM002690
.D05     ANOP                                                           BM002700
&LABEL   SETC  '&NAME'                                                  BM002710
         AIF   ('&LOOP' EQ '').D06                                      BM002720
&LABEL   SETC  ' '                                                      BM002730
.D06     ANOP                                                           BM002740
&LABEL   LA    R2,&PARM1 0         POINT AT DCBSW                       BM002750
         AIF   ('&RTN' EQ '').D07                                       BM002760
&RTNE    SETC  '&RTN'                                                   BM002770
         AGO   .D09                                                     BM002780
.D07     AIF   ('&SUBTYPE' EQ 'CLOSE').D08                              BM002790
&RTNE    SETC  'OPEN'                                                   BM002800
         AIF   ('&SUBTYPE' EQ 'OPEN').D09                               BM002810
&RTNE    SETC  'TIOTSCAN'                                               BM002820
         AGO   .D09                                                     BM002830
.D08     ANOP                                                           BM002840
&RTNE    SETC  'CLOSE'                                                  BM002850
.D09     ANOP                                                           BM002860
IOMD&SYSNDX CBAL R4,&RTNE 0        PERFORM SUB-ROUTINE                  BM002870
         AIF   ('&LOOP' EQ '').D10                                      BM002880
         LA    R2,IOPSLGTH(,R2) 0  INCREMENT TO NEXT DCBSW              BM002890
         BCT   R10,IOMD&SYSNDX 0   LOOP BACK TO PROCESS NEXT            BM002900
.D10     AIF   ('&PARM2' NE '').A03                                     BM002910
         AIF   ('&PARM3' NE '').A03                                     BM002920
         AIF   ('&PARM4' NE '').A03                                     BM002930
         MEXIT                                                          BM002940
.E00     AIF   ('&SUBTYPE' NE 'CLOSE').F00                              BM002950
         AIF   ('&TYPE' EQ 'DEF').E01                                   BM002960
         AIF   ('&TYPE' EQ '').D04                                      BM002970
         AGO   .D01                                                     BM002980
.E01     ANOP                                                           BM002990
         AIF   ('&SUBTYPE' EQ 'OPEN').D09                               BM003000
&RTNE    SETC  'TIOTSCAN'                                               BM003010
&LABEL   SETC  'CLOSE'                                                  BM003020
         AIF   ('&NAME' EQ '').E02                                      BM003030
&LABEL   SETC  '&NAME'                                                  BM003040
.E02     ANOP                                                           BM003050
&LABEL   DS    0H 0                ENTRY TO CLOSE SUBROUTINE            BM003060
         TM    IOPSSW(R2),IOSWOPEN TEST IF DATA SET OPEN                BM003070
         BZ    0(R4) 0             RETURN IF NOT                        BM003080
         L     R1,IOPSDCB(R2) 0    GET DCB ADDRESS                      BM003090
         CNOP  0,4 0               ENSURE CORRECT ALIGNMENT             BM003100
         ST    R1,*+8 0            STORE DCB ADDRESS                    BM003110
         BAL   R1,*+8 ^            POINT R1 AT PARM LIST                BM003120
         DC    A(0) 0              DCB ADDRESS                          BM003130
         MVI   0(R1),128 0         SET OPTION BYTE                      BM003140
         SVC   20 0                ISSUE CLOSE SVC                      BM003150
         L     R1,IOPSDCB(R2) ^    GET DCB ADDRESS                      BM003160
       FREEPOOL (R1) ^             FREE ACQUIRED BUFFER POOL            BM003170
         NI    IOPSSW(R2),IOSWCLOS INDICATE CLOSED                      BM003180
         BR    R4 0                RETURN TO MAIN-LINE                  BM003190
         AIF   ('&PARM1' NE '').A03                                     BM003200
         AIF   ('&PARM2' NE '').A03                                     BM003210
         AIF   ('&PARM3' NE '').A03                                     BM003220
         AIF   ('&PARM4' NE '').A03                                     BM003230
         AIF   ('&LOOP' NE '').A03                                      BM003240
         AIF   ('&RTN' NE '').A03                                       BM003250
         MEXIT                                                          BM003260
.*                                                                      BM003270
.*                                                                      BM003280
.*       IOM   EOF,DCBSW-NAME (,DUMMY BUFFER ADDRESS)                   BM003290
.*                                                                      BM003300
.F00     AIF   ('&SUBTYPE' NE 'EOF').G00                                BM003310
         AIF   ('&PARM1' EQ '').C011                                    BM003320
&NAME    OI    &PARM1.+IOPSSW,IOSWEOF INDICATE EOF                      BM003330
         MVI   &PARM1.+IOPSEOD,C'Y' SET CHARACTER FOR EOF INDICATION    BM003340
         AIF   ('&PARM2' EQ '').F01                                     BM003350
         L     R1,&PARM2 ^         POINT R1 AT DUMMY BUFFER             BM003360
         ST    R1,&PARM1.+IOPSRECA 0PRESERVE DUMMY BUFFER ADDRESS       BM003370
         AGO   .F02                                                     BM003380
.F01     XC    &PARM1.+IOPSRECA(4),&PARM1.+IOPSRECA NULLIFY RECORD ADD  BM003390
.F02     ANOP                                                           BM003400
         AGO   .A02                                                     BM003410
.G00     AIF   ('&SUBTYPE' NE 'TIOTSCAN').H00                           BM003420
         AIF   ('&TYPE' EQ 'DEF').G01                                   BM003430
         AIF   ('&TYPE' NE '').D01                                      BM003440
         AGO   .D04                                                     BM003450
.G01     ANOP                                                           BM003460
&LABEL   SETC  'TIOTSCAN'                                               BM003470
         AIF   ('&NAME' EQ '').G02                                      BM003480
&LABEL   SETC  '&NAME'                                                  BM003490
.G02     ANOP                                                           BM003500
&LABEL   DS    0H 0                ENTRY TO TIOT SCAN ROUTINE           BM003510
         BC    0,IOMG&SYSNDX 0     FIRST TIME SWITCH                    BM003520
         OI    *-3,X'F0' 0         SET FIRST TIME SWITCH                BM003530
         EXTRACT IOMATIOT,'S',FIELDS=TIOT ^OBTAIN ADDRESS OF TOOT       BM003540
         B     IOMG&SYSNDX ^       BRANCH AROUND SAVE AREAS             BM003550
IOMATIOT DS    F 0                 ADDRESS OF TIOT                      BM003560
IOMTIOT1 DS    F 0                 SAVE AREA FOR R3                     BM003570
IOMTIOT2 DS    F 0                 SAVE AREA FOR R10                    BM003580
IOMG&SYSNDX EQU * 0                SUBSEQUENT PROCESSING                BM003590
         ST    R3,IOMTIOT1 0       PRESERVE CONTENTS                    BM003600
         ST    R10,IOMTIOT2 0       OF R3 AND R10                       BM003610
         L     R3,IOMATIOT 0       GET ADDRESS OF TIOT                  BM003620
         LA    R3,24(,R3) 0        POINT AT FIRST DD ENTRY              BM003630
IOMH&SYSNDX CLC 0(4,R3),=F'0' 0     TEST FOR END OF TIOT                BM003640
         BE    IOMI&SYSNDX.+4      RETURN IF YES                        BM003650
         CLC   4(8,R3),IOPSDDN(R2) TEST FOR DDNAME MATCH                BM003660
         BE    IOMI&SYSNDX 0       BRANCH IF YES                        BM003670
         SR    R10,R10 0           ZEROISE WORK REGISTER                BM003680
         IC    R10,0(R3) 0         INSERT ENTRY LENGTH                  BM003690
         AR    R3,R10 0            INCREMENT TO NEXT ENTRY              BM003700
         B     IOMH&SYSNDX 0       LOOP TO PROCESS NEXT ENTRY           BM003710