         MACRO                                                          BM008460
&NAME    SUBIN &SAVE=,&PREFIX=,&FLOWTHR=                                BM008470
         GBLA  &SUBINC                                                  BM008480
         LCLA  &N,&S                                                    BM008490
         LCLC  &R,&P,&PP                                                BM008500
         LCLC  &NAME1                                                   BM008510
&SUBINC SETA   &SUBINC+1                                                BM008520
&NAME1   SETC  '&NAME'                                                  BM008530
         AIF   ('&SAVE' NE 'ALL').F00                                   BM008540
&P       SETC  '&PREFIX'                                                BM008550
         AIF   ('&P' NE '').G00                                         BM008560
&P       SETC  '$&SUBINC'                                               BM008570
.G00     ANOP                                                           BM008580
&NAME1   SETC  '&P.ALL'                                                 BM008590
&NAME1   DS    16F ^               SAVE AREA FOR ALL REGISTERS          BM008600
&NAME    STM   R0,R15,*-64 ^       PRESERVE ALL REGISTERS               BM008610
         MEXIT                                                          BM008620
.F00     ANOP                                                           BM008630
         AIF   ('&FLOWTHR' EQ '').D00                                   BM008640
         AIF   ('&FLOWTHR' EQ 'YES').D01                                BM008650
         MNOTE 4,'UNKNOWN ''FLOWTHR'' SPECIFICATION - IGNORED'          BM008660
         AGO   .D00                                                     BM008670
.D01     B     &NAME ^             BR AROUND SAVE AREAS                 BM008680
.D00     ANOP                                                           BM008690
&N       SETA  N'&SAVE                                                  BM008700
         AIF   (&N GT 0).C1                                             BM008710
&NAME    DS    0H                                                       BM008720
         MEXIT                                                          BM008730
.C1      ANOP                                                           BM008740
&P       SETC  '&PREFIX'                                                BM008750
         AIF   ('&P' EQ '').C2                                          BM008760
&PP      SETC  '&P.SAVE'                                                BM008770
         AGO   .C3                                                      BM008780
.C2      ANOP                                                           BM008790
&PP      SETC  '$&SUBINC'                                               BM008800
.C3      ANOP                                                           BM008810
.C5      ANOP                                                           BM008820
&S       SETA  &S+1                                                     BM008830
         AIF   (&S GT &N).C6                                            BM008840
&PP&SAVE(&S) DS F 0                SAVE AREA                            BM008850
         AGO   .C5                                                      BM008860
.C6      ANOP                                                           BM008870
&S       SETA  0                                                        BM008880
.E01     ANOP                                                           BM008890
&S       SETA  &S+1                                                     BM008900
         AIF   (&S GT &N).C4                                            BM008910
&NAME1   ST    &SAVE(&S),&PP&SAVE(&S) 0      PRESERVE REGISTER          BM008920
&NAME1   SETC  ' '                                                      BM008930
         AGO   .E01                                                     BM008940
.C4      ANOP                                                           BM008950
         MEND                                                           BM008960
