STOW     TITLE 'AIDSSTOW - STOW ROUTINE'
         MACRO
&NAME    STERCD &CODE
         GBLA  &INTER
&INTER   SETA  &CODE
         MEND
         SPACE 2
         MACRO
&NAME    AGET  &DTFN
         LCLB  &DTF
         LCLA  &AS
&AS      SETA  10
         AIF   ('&DTFN' EQ '').AGERR
         AIF   ('&DTFN'(1,1) NE '(').AG02
&DTF     SETB  1
.AG02    ANOP
         CNOP  2,4
         AIF   ('&NAME' EQ '').AG03
&NAME    DS    0H
.AG03    ANOP
         AIF   (NOT &DTF).AG04
         ST    &DTFN(1),*+&AS
.AG04    ANOP
         L     RGO,=A(AGET)
         BALR  RLNK,RGO
         AIF   (&DTF).AG06
         DC    A(&DTFN)
         AGO   .AG08
.AG06    ANOP
         DC    A(0)
.AG08    ANOP
         MEXIT
.AGERR   MNOTE 'DTF ADDRESS MISSING. EXPANSION TERMINATED'
.END     MEND
         SPACE 4
         MACRO
&NAME    RELREC &T=,&DSECT=
         AIF   ('&DSECT' EQ 'YES').TGL2
&NAME    DS    0CL80
         AGO   .TGL3
.TGL2    ANOP
&NAME    DSECT
.TGL3    ANOP
&T.TYP   DS    CL4
         DS    CL1
&T.LOC   DS    CL3
         DS    CL2
&T.LEN   DS    CL2
         DS    CL2
&T.ID    DS    CL2
&T.DATA  DS    0CL56
         DS    CL38
&T.MM    DS    CL3
&T.DD    DS    CL3
&T.YY    DS    CL3
&T.HH    DS    CL3
&T.MIM   DS    CL3
&T.SS    DS    CL3
&T.TID   DS    CL4
&T.SEQ   DS    CL4
         AIF   ('&DSECT' NE 'YES').TGL6
&SYSECT  CSECT
.TGL6    ANOP
         MEND
         SPACE 4
         MACRO
&NAME    GENER &ER,&DUMP=YES
         GBLA  &INTER
         LCLC  &QTE
&QTE     SETC  ''''
&INTER   SETA  &INTER+1
*                                                          *
************************************************************
         MNOTE 0,'*******   ERROR CODE   ****** &INTER *****'
*                                                          *
************************************************************
*                                                          *
&NAME    LA    R14,X&QTE.&INTER.&QTE
         AIF   ('&DUMP' EQ 'NO').TGL2
         O     R14,=X'80000000'
.TGL2    ANOP
         L     R15,=A(ERRPNTS)
         ST    R14,8(R15)
         MVC   0(8,R15),=A(&ER,L&QTE.&ER-1)
         ZSCALL ERRPRT
         MEND
         SPACE 4
         MACRO
&NAME    WMSG  &WMSG,&WTXT
         ENTRY &WMSG
         DS    0H
&WMSG    EQU   *+2
         DC    Y(&WMSG.X-&WMSG)
         DC    X'FF'
         DC    C&WTXT
&WMSG.X  EQU   *-1
         MEND
         SPACE 2
         MACRO
&NAME    SWARN &WMSG
&NAME    MVI   &WMSG,X'09'
         MEND
         EJECT
AIDSSTOW CSECT
         SPACE
         ENTRY NEWBLKS,BLKSI
         ENTRY LOADDCB,DSNAME
         ENTRY FILE2
         ENTRY JFCBA,DIAGFLG
         EXTRN SYSGOEOF
         EXTRN FLE2EOF,FL1BPOOL,PCHBPOOL
         EXTRN MNAME,USEDATA
         EXTRN STOWDIR
         EXTRN STOWUSP
         ENTRY TRKDEAD,FRAGS,ERRPNTS
         ENTRY DEVCODE
         SPACE
         ZREG
R12      EQU   12
         SPACE 2
         ZSTART
         SPACE
         L     RDAT,=A(CONSTNTS)
         USING CONSTNTS,RDAT     SET COVERAGE FOR CONSTANTS
         SPACE 2
*********************************************************************
*                                                                   *
*    THE CSECT NAME TABLE OVERLAYS THE CODE OF THIS PROGRAM        *
*    FROM CSTABLE TO CSTRHE                                        *
*                                                                   *
         B     FULLALGN
CSTABLE  DS    0F
         SPACE
FULLALGN DS    0H
*********************************************************************
         SPACE
         STERCD 20               INIT ERROR RETURN CODE             P
         SPACE 5
         ST    R1,PSAVE        SAVE PARM FIELD POINTER
         OPEN  (SYSPRT,OUTPUT)   OPEN SYSPRINT FILE                 I
         L     R1,PSAVE
         L     1,0(1)            LOAD ADDR OF PARM FIELD INTO 1     P
         LH    RWK,0(1)          AND LOAD LEN OF PARM FIELD INTO RWK  C
         LTR   RWK,RWK           ARE THERE ANY PARAMETERS           DY
         BZ    NOPARM                                               C
         LA    RW1,2(1)          LOAD PARM FIELD LHE AND            P
         LA    RW2,1
         LR    RW3,RW1
         AR    RW3,RWK           RHE ADDRS FOR PARM LOOKUP          C
         SR    RW3,RW2
PARM1    CLEAR PARMFLD           CLEAR PARM FIELD WORK AREA         P
         LA    RA,PARMFLD        AND LOAD 6 WITH PARMFLD ADDR       C
         SPACE 2
PARM2    DS    0H
         CLI   0(RW1),C','       IS THIS END OF PARMAMETER          DN
         BE    PARM4                                                CN
         MVC   0(1,RA),0(RW1)    MOVE PARM FIELD TO PARM WORK       P
         AR    RA,RW2
         BXLE  RW1,RW2,PARM2     HAS ENTIRE PARM FIELD BEEN SCANNED  DY
         SET   ENDPARM           SET END OF PARM SCAN FLAG          P
         SPACE 2
PARM4    LM    RA1,RB1,PTLST     LOAD PARM TBL PARM LIST FOR LOOKUP  P
PARM4A   DS    0H
         CLC   PARMFLD,0(RA1)    IS THIS A VALID PARAMETER          DN
         BE    PARM6                                                C
         BXLE  RA1,RB,PARM4A     ALL VALID PARMS BEEN CHECKED      DY
         GENER ER12,DUMP=NO      INVALID PARAMETER                 S
         SPACE 2
PARM6    DS    0H
         MVI   7(RA1),X'FF'      SET PARM OPTION INDICATOR          P
         AR    RW1,RW2
         IFN   PARM1,ENDPARM   HAS ENTIRE PARM FIELD BEEN SCANNED  DYV
         B     DPARM                                               B
         SPACE 4
NOPARM   DS    0H                ASSUME DEFAULTS                   N
         MVI   LDIND,X'FF'       SET LOAD MODE INDICATOR AND       P
         MVI   NDIND,X'FF'       NODECK MODE INDICATOR             C
         SPACE 2
DPARM    DS    0H
         IFN   DPARM2,CMPIND     COMPILE RUN                        DY
         ZSCALL SORTER           SORT ASSEMBLY OUTPUT               S
         LTR   R15,R15
         BZ    DPARM2
         GENER ER8               SORT ROUTINE PROBLEMS             S
         SPACE 2
DPARM2   DS    0H
         SEGWT STOWSUBR          LOAD NEXT SEGMENT                  I
         L     RWK,=A(PCHBPOOL)
         BUILD (RWK),2,400       BUILD SYSPCH BUFFER POOL           I
         OPEN  (SYSPCH,OUTPUT,FILE2,OUTPUT,INDCB,INPUT)  OPEN FILES I
*                                OPEN FILES                         I
         SPACE
*    COMPUTE NUMBER OF RECORDS/BLK FOR INDCB (SYSIN)               T
         SR    RWK,RWK
         LA    RA,80
         LH    RW1,INDCB+62      SET BLOCKSIZE                     P
         DR    RWK,RA
         STH   RW1,IRPBLK        SAVE RECS/BLK                     P
         SPACE
*                                OPEN ALL FILES                    I
         SPACE
         IFN   NODECK,DKIND      IS THIS DECK MODE                  DY
         IFN   NOLOAD,LDIND      IS THIS LOAD MODE                 DY
         SPACE 3
*    DECK AND LOAD ARE SPECIFIED PARMS                             T
         MVI   DKMSG,X'03'       NO-OP PUNCH MESSAGE               P
         MVI   LDDKMSG,X'09'     SET LOAD AND PUNCH CONBO TO PRINT  P
         B     CKNAME            GO READ JFCB                      B
         SPACE 3
*    DECK AND NOLOAD ARE SPECIFIED PARMS                           T
NOLOAD   DS    0H
         MVI   LDMSG,X'03'       NO-OP STOW MESSAGE                P
         MVC   DKMOD,=C'MODULE'
         B     GTXT
         SPACE 3
*    NODECK AND LOAD SPECIFIED PARMS                                T
NODECK   DS    0H
         MVI   DKMSG,X'03'       NO-OP PUNCH MSG                   P
         IF    CKNAME,LDIND      IS THIS LOAD MODE                 DY
         SPACE 3
*    NODECK AND NOLOAD ARE SPECIFIED PARMS                         T
         MVI   NLNDMSG,X'09'     SET NOLOAD/NODECK MSG TO PRINT    P
NODECK1  MVI   LDMSG,X'03'       NO-OP STOW AND                    P
         MVI   DKMSG,X'03'       PUNCH MESSAGES                    C
         MVI   MLN3,X'03'
         MVI   PACKMSG,X'03'
         B     EXIT                                                B
         SPACE 4
CKNAME   CALL  IAJDDCHK,(DDPARM)    READ JFCB FOR SYSGO            S
* BRANCH BASED ON RETURN CODE                                        P
         B     *+4(R15)                                             BT
         B     GDRTN                                                BT
         B     DUMMY                                                 BT
         B     NODDNAME                                              BT
* TAKE ONE OF THREE POSSIBLE BRANCHES                                B
         SPACE 4
*    IAJDDCHK RETURNS THE JFCB ADDR IN R0
         SPACE
GDRTN    DS    0H
         LR    RWK,R0   R0 HAS STARTING LOC OF JFCB                  P
         ST    RWK,JFCBA         SAVE JFCB ADDRESS                  P
         MVI   JFCBA,X'87'
         MVC   LDDSN,0(RWK)      MOVE DSN TO MESSAGE                P
         CLC   44(8,RWK),=CL8' '    COMPARE FOR MEMBER NAME          DN
         BE    NOMEM                                                 C
         MVC   LDMEM,44(RWK)     MOVE MEMBER NAME TO MESSAGE        P
         L     R14,=A(MNAME)
         MVC   0(8,R14),44(RWK)     AND STOW LIST                  C
         MVC   44(8,RWK),=CL8' ' CLEAR MEMBER NAME FIELD            P
         BAL   RW1,CKORG  BRANCH TO CHECK ORGANIZATION ROUTINE       B
         TM    38(RW2),X'02'    TEST FOR PARTITIONED DATA SET        DN
         BO    GTXT                                                C
         SWARN WARN7             SET WARNING MESSAGE TO PRINT       P
         SWARN WARN5
         MVC   DKMOD-1(8),LDMEM  SET MEMBER NAME IN MESSAGE
         B     NODDN2                                               B
         SPACE
NOMEM    DS    0H
         MVC   LDMEM+2(6),=C'MODULE'
         MVC   DKMOD,=C'MODULE'
         BAL   RW1,CKORG  BRANCH TO CHECK ORGANIZATION ROUTINE       B
         TM    38(RW2),X'40'  TEST FOR SEQUENTIAL DATA SET           DN
         BO    GTXT                                                C
         SWARN WARN8             SET CONTROL CHAR TO PRINT          P
         SWARN WARN5
         B     NODDN2                                               B
         SPACE 5
* SUBROUTINE TO CHECK THE DATA SET ORGANIZATION                      T
CKORG    DS    0H
         MVC   DSNAME(44),0(RWK) MOVE IN DATA SET NAME              P
         MVC   TXDSN,0(RWK)      MOVE DSN TO STORAGE               P
         MVC   VOL,118(RWK)      MOVE VOL ID TO STORAGE
         MVC   TXVOL,118(RWK)      FROM JFCB
         OBTAIN DSCB
         LTR   R15,R15           SUCCESSFUL RETURN                 DN
         BZ    OKAY                                                C
         N     R15,=X'000000FF'
         CVD   R15,DECIMAL       CONVERT RETURN CODE TO DECIMAL     P
         ED    ER1RC-1(4),DECIMAL+6
         GENER ER1,DUMP=NO
         SPACE
OKAY     DS    0H
         LA    RW2,WORKAREA
         BR    RW1                                                   E
         SPACE 5
*    SYSGO DD DUMMY
DUMMY    TAG
         RES   LDIND             RESET LOAD INDICATOR               P
         MVI   DUMMSG,X'09'      SET DUMMY MESSAGE PRINT            P
         IFN   NODECK1,DKIND     IS THIS DECK MODE                  DY
         MVI   LDMSG,X'03'       NO-OP STOW MESSAGE                 P
         B     GTXT                                                 B
         SPACE 2
*    NO DDNAME SPECIFIED                                           T
NODDNAME DS    0H
         SWARN WARN2
         SWARN WARN5
NODDN2   MVC   RTNCD,=H'4'       SET RETURN CODE                    P
         RES   LDIND
         SET   DKIND
         MVI   DKMSG,X'09'
         MVI   LDMSG,X'03'
         EJECT
GTXT     DS    0H
         IFN   CALLDTE,LDIND     IS THIS LOAD MODE                  DY
         OPEN  (LOADDCB,OUTPUT),TYPE=J
         LA    RW3,LOADDCB
         USING IHADCB,RW3
         LH    RW2,DCBBLKSI      SAVE SYSGO BLKSIZE                 P
         STH   RW2,BLKSI
         MVC   DEVCODE,DCBDEVT   SAVE DEVICE CODE                   P
         CLOSE (LOADDCB)
         SPACE
         DROP  RW3
         SPACE 4
CALLDTE  DS    0H
         CALL  IAJTODAY,(TXDATE) CALL SUB PROGRAM TO GET DATE        SV
         MVC   LNDATE,TXDATE    MOVE TO STORAGE FOR LINE PRINT     P
         MVC   AREA(2),TXDATE    SET UP DATE IN TAG AREA             P
         MVC   AREA+2(2),TXDATE+3
         MVC   AREA+4(2),TXDATE+6
         PACK  DTFLD(4),AREA(7)      PACK DATE FOR HEX PRTOUT        P
         L     RWK,=A(USEDATA)
         MVC   0(3,RWK),DTFLD    SAVE DATE                          P
         MVC   7(3,RWK),DTFLD
         MVC   MDDTE,DTFLD       MOVE MMDD TO MDATA FIELD           P
         TIME
         ST    R0,TIMEID
         MVC   4(3,RWK),TIMEID   SAVE TIME                          P
         MVC   MDTME,TIMEID      MOVE HHMM TO MDATA FIELD           P
         SRL   R0,4
         ST    R0,TIMEID
         OI    TIMEID+3,X'0F'
         MVC   TIMEWK,EDIT    STORAGE FOR EDIT MASK
         ED    TIMEWK,TIMEID
         MVC   TXTIME,TIMEWK+2   MOVE TO TEXT CARD
         MVC   LNTIME,TXTIME     MOVE TO STORAGE FOR LINE PRINT    P
         SPACE
CSTRHE   DS    0H                CSECT TABLE RHE                    N
         EJECT
*    FILE1 AND INDCB USE THE GET-LOCATE / PUT-MOVE                 T
*    PROCESSING METHOD.
*
*        FOR PACKING PURPOSES
*        RW1 IS USED TO COVER BUFFER REC 1 (RXTREC)
*        RW2 IS USED TO COVER BUFFER REC 2 (ALTREC)
*
         SPACE
         USING RXTREC,RW1        SET COVERAGE                      P
         USING ALTREC,RW2
         LA    R12,CSTABLE
         USING CSDUM,R12         SET COVERAGE FOR CSECT TABLE       P
         ZSCALL ESDRT            PROCESS ESD RECORDS                S
         B     WRAPUP            EOF                               DN
         SPACE
*    SINCE WE ARE USING GET-LOCATE FOR THE INPUT FILES IT IS NECESSARY
*    TO SAVE THE LAST RECORD OF EACH INPUT BLOCK IN A WORK AREA.
*
*    THIS WIIL PREVENT THE LAST BLK RECORD FROM BEING OVERLAID --
*    THE PACKING ROUTINE USES TWO INPUT BUFFER RECORDS AND CAN
*    ALSO USES A WORK AREA FOR TXT RECORD PACKING.
         SPACE
REL02    DS    0H
         LH    R14,WRPBLK        CURRENT RECORD COUNT              P
         LA    R14,1(R14)
         STH   R14,WRPBLK
         CH    R14,IRPBLK        LAST RECORD                       DY
         BNH   REL03                                               C
         L     R1,=A(RECSAVE)
         MVC   0(80,R1),0(RW1)   SAVE THE RECORD                    P
         LR    RW1,R1            AND ADDRESS                        C
         XC    WRPBLK,WRPBLK
         B     REL02                                               B
         SPACE
REL03    DS    0H
         L     RWK,INFADR        LOAD RWK WITH INPUT DCB ADDR       P
         AGET  (RWK)             GET INPUT RECORD                  I
         B     WRAPUP            END OF FILE                        DN
         LR    RW2,R1            SAVE RECORD ADDRESS               P
         CLI   ALTTYP,X'02'      IS THIS RELOC REC                  DN
         BNE   REL52                                                C
         CLI   NOPKFLG,X'FF'     IS THIS NOPACK MODE                DN
         BE    REL52                                                C
         CLC   ALTTYP,RLD        IS THIS RLD                       DN
         BE    REL50                                               C
         CLC   ALTTYP,END        IS THIS END RECORD                DN
         BE    REL55                                               C
         IF    REL05,SETONE      IS THIS SECOND RECORD              DN
         SET   SETONE
         LA    RA,ALTID
         ZSCALL CHECKID          CHECK ESDID                       S
         LR    RW1,RW2           ADJUST BUFFER RECORD POINTERS     P
         B     REL02                                                B
         SPACE 2
REL05    DS    0H
         XC    DIFF,DIFF
         CLC   CSESDID,ALTID     IS THIS SAME CSECT AS BEFORE       DN
         BE    REL06                                                C
         LR    RA1,RW1           WRITE RXTREC                      P
         ZSCALL WRITE
         LA    RA,ALTID
         ZSCALL CHECKID          CHECK ESDID                        S
         LR    RW1,RW2           ADJUST BUFFER POINTERS            P
         B     REL02                                               B
         SPACE 2
REL06    DS    0H
         IF    REL40,MDATAFLG    HAVE WE ADDED MDATA THIS RECORD    DN
         MVC   TLEN+2(2),RXTLEN  SAVE BYTE COUNT                    P
         MVC   TLOC+1(3),RXTLOC      AND LENGTH                     C
         CLC   CSWLOC,TLOC       ANY UNUSED SPACE                   DY
         BNL   REL40                                                C
         SPACE 2
*    WE HAVE UNUSED SPACE - LETS FIND OUT HOW MUCH                 T
         LA    R1,12
         L     RB,CSWLOC         LOAD RB WITH WORK LOC ADDR         P
         L     RB1,TLOC          AND RB1 WITH TXT LOC ADDR         C
         LR    R14,RB1
         SR    R14,RB            COMPUTE LEN OF DS AREA            P
         CR    R14,R1            ARE THERE AT LEAST 12 BYTES       DY
         BL    REL40                                               C
         SPACE 2
*    WE HAVE AT LEAST 12 UNUSED BYTES - LETS SEE IF WE CAN         T
*    COMPUTE A VALID DOUBLE WORD BOUNDARY ADDRESS.                 C
         MVI   MDATAMSG,X'09'    SET PRINT CONTROL CHAR FOR MSG    P
         SET   MDATAFLG
         LR    R14,RB1           LOAD R14 WITH TXT LOC ADDR        P
         SR    R14,R1            AND SUB 12                        C
         LR    R15,R14           SAVE THE NEW TXT LOC ADDR         P
         SRL   R14,3             ROUND OFF TO A                    P
         SLL   R14,3             DOUBLE WORD BOUNDARY              C
         CR    R14,R15           WAS ADDR ALREADY DOUBLE WORD      DN
         BE    REL10                                               C
         CR    R14,RB            IS THERE STILL ENOUGH SPACE       DY
         BL    REL10                                               C
         SPACE 2
*    WE CAN SET MDATA ON DOUBLE WORD BOUNDARY                      T
         SR    R15,R14           COMPUTE THE DIFFERENCE            P
         STH   R15,DIFF          AND NOW SAVE THE DIFFERENCE       C
         AR    R1,R15
         SPACE 2
*    LETS SEE IF MDATA CAN FIT IN THIS TXT CARD                    T
REL10    DS    0H
         L     RW3,TLEN          LOAD RW3 WITH DATA BYTE COUNT     P
         LR    R15,RW3           AND SAVE IN R15                   C
         AR    R15,R1            ADD ADDITIONAL BYTES              P
         CH    R15,H56           WILL IT FIT                        DN
         BNH   REL15                                                C
         SPACE
*    LETS SEE IF IT WILL FIT WIHTOUT DOUBLE WORD BOUNDARY
         LH    R14,DIFF
         SR    R15,R14
         CH    R15,H56           WILL IT FIT NOW                    DY
         BH    REL20                                                C
         SR    R1,R14            SET R1 BACK TO 12
         XC    DIFF,DIFF
         SPACE 2
*    MDATA CAN FIT IN TXT CARD                                     T
REL15    DS    0H
         ST    R15,TLEN
         MVC   RXTLEN,TLEN+2     SET DATA BYTE COUNT                P
         SR    RB1,R1
         ST    RB1,WFULL
         MVC   RXTLOC,WFULL+1    SET TXT LOC ADDR                   P
         BCTR  RW3,0
         EX    RW3,MVC1          MOVE TXT DATA TO HOLD AREA        P
         CLEAR RXTDATA
         MVC   RXTDATA(12),MDATA   MOVE MDATA TO TXT REC            P
         LA    R14,RXTDATA+12
         AH    R14,DIFF
         EX    RW3,MVC2          MOVE ORG TXT DATA BACK TO TXT REC  P
         B     REL40                                               B
         SPACE 2
*    MUST ADD A NEW TXT CARD                                       T
REL20    DS    0H
         SR    RB1,R1            COMPUTE NEX TXT LOC ADDR          P
         ST    RB1,WFULL
         MVC   TXTLOC,WFULL+1    AND MOVE TO TXT ADD RECORD        C
         ST    R1,WFULL
         MVC   TXTLEN,WFULL+2    SET BYTE COUNT                    P
         MVC   TXTID,RXTID       AND SET ESDID                      C
         MVC   TXTDATA(12),MDATA   SET MDATA                       P
         MVC   TXTTID,RXTTID     SET TITLE DATA                     P
         STM   RW1,RW2,POINTERS  SAVE BUFFER POINTERS              P
         LR    RW2,RW1           SET NEW POINTERS FOR PACKING      P
         LA    RW1,TXTADD        ROUTINE                           C
         SPACE
*    PACKING IS FROM RXTREC TO TXTADD
         ZSCALL PACK             PACK THE RECORDS                   S
         B     REL26             FULL PACK                          DN
         SPACE
*    PARTIAL PACKING PERFORMED
         SPACE
REL26    TAG
         LR    RA1,RW1
         ZSCALL WRITE            WRITE TXTADD RECORD                S
         MVC   TLEN+2(2),TXTLEN  SAVE BYTE COUNT                    P
         MVC   TLOC+1(3),TXTLOC    AND SAVE LOC ADDR                C
         L     RW1,TLEN
         L     RA1,TLEN
         L     RB1,TLOC
         AR    RA1,RB1
         ST    RA1,CSWLOC        SET NEW WORK LOCATION ADDR        P
         LM    RW1,RW2,POINTERS    RESTORE BUFFER POINTERS         P
         B     REL40                                                B
         SPACE 2
*    PACKING IS FROM ALTREC TO RXTREC
         SPACE
REL40    DS    0H
         ZSCALL PACK             LETS TRY TO PACK THE RECORDS       S
         B     REL02             IS THIS FULL PACK                  DN
         SPACE
         LR    RA1,RW1           WRITE RXTREC                      P
         ZSCALL WRITE
         SPACE
*  LETS COMPUTE A NEW WORK LOCATION ADDRESS                         P
         MVC   TLEN+2(2),RXTLEN  SAVE BYTE COUNT                    P
         MVC   TLOC+1(3),RXTLOC    AND LOCATION ADDR                C
         L     RA1,TLEN
         L     RB1,TLOC
         AR    RA1,RB1
         C     RA1,CSWLOC        DOES THIS EXCEED HIGH ADDR        DY
         BNH   REL42                                                C
         ST    RA1,CSWLOC        SAVE NEW LOCATION ADDR            P
REL42    DS    0H
         LR    RW1,RW2           ADJUST BUFFER POINTERS            P
         RES   MDATAFLG
         B     REL02                                                B
         SPACE 2
REL50    DS    0H
         IF    REL52,RLDFLG
         LR    RA1,RW1           WRITE RXTREC                      P
         ZSCALL WRITE
         SET   RLDFLG
REL52    LR    RA1,RW2           WRITE ALTREC                      P
         ZSCALL WRITE
         B     REL02
         SPACE 2
REL55    DS    0H
         IFN   REL50,RLDFLG      HAVE WE PROCESSED RLD REC          DY
         B     REL52
         SPACE
MVC1     MVC   TXTDATA(*-*),RXTDATA
         DROP  RW1,RW2
         SPACE 4
WRAPUP   DS    0H
         L     RWK,INFADR
         CLOSE ((RWK),,SYSPCH,,FILE2)
         C     RWK,=A(INDCB)     IS INDCB THE INPUT FILE            DY
         BNE   WRAP2                                                C
         FREEPOOL (RWK)
WRAP2    TAG
         FREEPOOL FILE2
         ED    INPCNT-1(6),INRECS       SET INPUT AND              P
         ED    OUTPCNT-1(6),OUTRECS    OUTPUT RECORD COUNTS        C
         OI    INPCNT+4,X'F0'
         OI    OUTPCNT+4,X'F0'
         IFN   EXIT,LDIND        IS THIS LOAD MODE                  DY
         ZSCALL STOWDIR          DIRECTORY PROCESSING FOR SYSGO DSN S
         SR    RWK,RWK
         LA    RA,80             COMPUTE RECORDS/BLOCK             P
         LH    RW1,BLKSI
         DR    RWK,RA
         LR    RA,RW1            SAVE RECORDS/BLOCK                P
         SR    RWK,RWK
         SPACE
*   COMPUTE BLOCKS THIS MEMBER                                     T
         LH    RW1,NEWRECS
         DR    RWK,RA
         LTR   RWK,RWK           ANY SHORT BLOCKS                  DY
         BZ    NOSBLK                                              C
         LA    RW1,1(RW1)        ALLOW FOR SHORT BLOCK
NOSBLK   LA    RW1,1(RW1)        ALLOW FOR EOF BLOCK
         STH   RW1,NEWBLKS
USPPR    ZSCALL STOWUSP          UNUSED SPACE PROCESSING            S
         SPACE 2
**   CALCULATE ACTUAL NUMBER OF USED TRKS                          T
         OBTAIN DSCB         READ DATA SET CONTROL BLOCK
         LTR   R15,R15
         BZ    CALTRK
         N     R15,=X'000000FF'
         CVD   R15,DECIMAL       CONVERT RETURN CODE TO DECIMAL     P
         ED    ER1RC-1(4),DECIMAL+6
         GENER ER1,DUMP=NO       OBTAIN MACRO                       S
         SPACE
CALTRK   DS    0H
         MVC   TRKUSED,WORKAREA+54  TOTAL TRKS USED THIS PDS       P
         MVC   EXTENTS+1(1),WORKAREA+15  AND EXTENTS               C
         LH    R14,TRKUSED
         SH    R14,TRKDEAD
         STH   R14,TRKUSED
         SPACE 2
*    SET TRKS-USED TRKS-DEAD, FRAGMENTS, AND EXTENTS FOR MESSAGE   T
*    BLOCK.                                                        C
         SPACE
         LA    RW2,INLIST        SET INPUT LIST POINTERS           P
         LA    RW3,OUTLIST       OUTPUT LIST POINTERS              C
         LA    R12,4             AND LOOP COUNTER                  C
         SPACE
OLOOP    L     RW1,0(RW2)
         LH    R1,0(RW1)
         CVD   R1,DECIMAL        CONVERT FOR MESSAGE BLOCK         P
         L     RA1,0(RW3)        POINTER FOR MSG FIELD             P
         BCTR  RA1,0             ADJUST FOR ED INSTR               C
         ED    0(4,RA1),DECIMAL+6
         LA    RW2,4(RW2)        ADVANCE LIST POINTERS             P
         LA    RW3,4(RW3)
         BCT   R12,OLOOP         END OLOOP                         DY
         SPACE
         MVC   EXT(2),EXT+1
         MVI   EXT+2,X'40'
         SPACE 2
EXIT     TAG
         ZSCALL PRINT            PRINT WARNING MESSAGES AND         S
*                                MESSAGE BLOCK                      C
         SPACE
         LH    R15,RTNCD         SET RETURN CODE
         ZEND  RC=(15)
         SPACE 2
MVC2     MVC   0(*-*,R14),TXTDATA
         SPACE 2
         LTORG
         EJECT
ESDRT    ZSENT ,
         USING RXTREC,RWK
         L     R12,=A(CSTABLE)   SET CSECT TABLE LHE AND            P
         L     RB1,=A(CSTRHE)    RHE ADDRESSES                      C
         SPACE
ESDRT1   DS    0H
         SPACE
*    CHECK RECORDS COUNTS TO KEEP IN SYNCH. NOT NESSARY TO MOVE
*    TO SAVE AREA.
         SPACE
         LH    R14,WRPBLK
         LA    R14,1(R14)
         STH   R14,WRPBLK
         CH    R14,IRPBLK        LAST RECORD                       DY
         BNH   ESDRT1B                                             C
         XC    WRPBLK,WRPBLK
         B     ESDRT1
         SPACE
ESDRT1B  DS    0H
         AGET  INDCB             GET INPUT RECORD                  I
         B     ESDEOF            END OF FILE                       DN
         LR    RWK,R1
         CLC   RXTTYP,ESD        IS THIS ESD RECORD                 DY
FULLTSW  BNE   ESDRT20                                              C
         SET   ESDFLG
         MVC   WFULL+2(2),RXTLEN     SAVE BYTE COUNT                P
         L     R15,WFULL
         LA    R14,RXTDATA
         USING ESDDUM,R14        SET COVERAGE FOR DSECT             P
         SPACE 2
ESDRT2   DS    0H
         LM    RW1,RW3,TYPLST    LOAD TABLE TYPE LIST POINTERS      P
ESDRT2B  CLC   ESDCD,0(RW1)      DOES THIS TYPE INCR ID COUNT       DN
         BE    ESDRT2D                                              C
         BXLE  RW1,RW2,ESDRT2B   END OF TABLE                       DY
         B     ESDRT4                                               B
         SPACE
ESDRT2D  LH    RW2,ID            INCREMENT ESDID                    P
         LA    RW2,1(RW2)        COUNT                              C
         STH   RW2,ID
         CLC   ESDLEN,SPACES     ANY DATA WITH THIS CSECT           DY
         BE    ESDRT4                                               C
         MVC   CSNAME,ESDNME     SAVE CSECT NAME                    P
         XC    CSWLOC,CSWLOC
         XC    CSMLEN,CSMLEN
         MVC   CSWLOC+1(3),ESDADR         SAVE STARTING LOC ADDR    C
ESDRT2F  NOP   ESDRT2M           HAVE WE SET LOC FOR TXTADD REC     DN
         MVC   TXTLOC,ESDADR     SAVE STARTING LOCATION             P
         MVI   ESDRT2F+1,X'F0'
ESDRT2M  MVC   CSMLEN+1(3),ESDLEN        SAVE CSECT LENGTH          P
         MVC   CSESDID,ID        SAVE ESDID CODE                    P
         LA    R12,20(R12)       SET RB1 TO START OF NEXT ENTRY     P
         AP    CSCNT,P1
         CR    R12,RB1           TABLE OVERFLOW                     DY
         BNH   ESDRT4                                              C
         MVI   FULLTSW+1,X'F0'   SET BYPASS SWITCH                  P
         SP    CSCNT,CSCNT
         B     ESDRT6                                               B
         SPACE
ESDRT4   DS    0H
         SH    R15,H16
         LTR   R15,R15           ALL ENTRIES PROCESSED              DN
         BZ    ESDRT6                                               C
         LA    R14,16(R14)       SET R14 TO START OF NEXT ENTRY     P
         B     ESDRT2                                               B
         SPACE 2
ESDRT6   DS    0H
         LR    RA1,RWK           WRITE RXTREC                      P
         LA    RA1,RXTREC
         ZSCALL WRITE
         B     ESDRT1                                               B
         SPACE 2
*    GENERATE $$$$0007 TXT ADD RECORD
ESDRT20  DS    0H
         CLI   RXTREC,X'02'      RELOC TYPE STATEMENT               DY
         BNE   ESDRT6                                               C
         IFN   ESDRT6,ESDFLG     HAVE WE PROCESSED ANY ESD RECS     DY
         SPACE
*    THE FOLLOWING SECTION OF CODE IS USED TO CHECK WHETHER THE