./ ADD NAME=MS00                                                        BC000010
         MACRO                                                          BC000020
&NAME    MS00  &DUMMY                                                   BC000030
*********************************************************************** BC000040
*        FORMAT OF MS00 CONTROL CARD                                  * BC000050
*********************************************************************** BC000060
         SPACE 1                                                        BC000070
*        SPECIFIES THE REPORT HEADING FOR THE SUSPENSE FILE UPDATE REP  BC000080
         SPACE 1                                                        BC000090
MS00CARD DSECT                                                          BC000100
MS00ID   DS    CL4                 CARD ID ('MS00')                     BC000110
MS00SPCE DS    CL1                 REPORT LINE SPACING                  BC000120
MS00TYPE DS    CL1                 REPORT HEADING TYPE                  BC000130
*                                   ' ' - SUSPENSE FILE UPDATE          BC000140
*                                   'S' - SUSPENSE FILE UPDATE          BC000150
*                                   'L' - BATCH LOG STATUS REPORT       BC000160
MS00HEAD DS    CL74                REPORT HEADING                       BC000170
MS00LGTH EQU   *-MS00CARD          LENGTH OF DSECT                      BC000180
         MEND                                                           BC000190
./ ADD NAME=MS01                                                        BC000200
         MACRO                                                          BC000210
&NAME    MS01  &DUMMY                                                   BC000220
*********************************************************************** BC000230
*        FORMAT OF MS01 CONTROL CARD                                  * BC000240
*********************************************************************** BC000250
         SPACE 1                                                        BC000260
*        SPECIFIES THE REPORT HEADING FOR THE BATCH BALANCING REPRRT    BC000270
         SPACE 1                                                        BC000280
MS01CARD DSECT                                                          BC000290
MS01ID   DS    CL4                 CARD ID ('MS01')                     BC000300
MS01SPCE DS    CL1                 REPORT LINE SPACING                  BC000310
MS01LIST DS    CL1                 DATA TO BE LISTED                    BC000320
*                                   ' ' - LIST ALL DATA                 BC000330
*                                   '1' - PRINT TOTALS & RECS IN ERROR  BC000340
*                                   'N' - PRINT TOTALS & RECS IN ERROR  BC000350
*                                   '2' - PRINT CONTROL TOTALS ONLY     BC000360
MS01HEAD DS    CL74                REPORT HEADING                       BC000370
MS01LGTH EQU   *-MS01CARD                                               BC000380
         MEND                                                           BC000390
./ ADD NAME=MS02                                                        BC000400
         MACRO                                                          BC000410
&NAME    MS02  &DUMMY                                                   BC000420
*********************************************************************** BC000430
*        FORMAT OF MS02 CONTROL CARD                                  * BC000440
*********************************************************************** BC000450
         SPACE 1                                                        BC000460
*        DEFINES THE FORMAT & CONTENT OF A BATCH CARD                   BC000470
         SPACE 1                                                        BC000480
MS02CARD DSECT                                                          BC000490
MS02ID   DS    CL4                 CARD ID ('MS02')                     BC000500
MS02PBCI DS    CL2                 POS'N OF BATCH CARD IDENTIFIER       BC000510
MS02LBCI DS    CL1                 LENGTH OF BATCH CARD IDENTIFIER      BC000520
MS02BCI  DS    CL8                 LITERAL BATCH CARD IDENTIFIER        BC000530
MS02CBBI DS    CL8                 LITERAL ID FOR CORRECTION BATCHES    BC000540
MS02DROP DS    CL1                 IF 'D' THEN DISCARD UNKNOWN CATD TYP BC000550
         DS    CL2                 UNUSED                               BC000560
MS02PCRN DS    CL2                 POS'N OF CORRECTION DATA RECORD NO   BC000570
MS02LCRN DS    CL1                 LENGTH OF CORRECTION DATA RECORD NO  BC000580
MS02ORL  DS    CL3                 OUTPUT RECORD LENGTH                 BC000590
MS02OCTL DS    CL1                 OUTPUT CONTROL SWITCH                BC000600
*                                   ' ' - WRITE DATA ONLY               BC000610
*                                   '1' - WRITE DATA + BATCH CARD       BC000620
*                                   '2' - WRITE DATA + CONTROL RECORD   BC000630
*                                   '3' - WRITE DATA, BATCH CARD, C.R.  BC000640
MS02URTN DS    CL8                 NAME OF USER SUB-ROUTINE             BC000650
MS02PBN1 DS    CL2                 POSN OF 1ST SEGMENT OF BATCH NO.     BC000660
MS02LBN1 DS    CL1                 LGTH OF 1ST SEGMENT OF BATCH NO.     BC000670
MS02PBN2 DS    CL2                 POSN OF 2ND SEGMENT OF BATCH NO.     BC000680
MS02LBN2 DS    CL1                 LGTH OF 2ND SEGMENT OF BATCH NO.     BC000690
MS02PBN3 DS    CL2                 POSN OF 3RD SEGMENT OF BATCH NO.     BC000700
MS02LBN3 DS    CL1                 LGTH OF 3RD SEGMENT OF BATCH NO.     BC000710
MS02PBN4 DS    CL2                 POSN OF 4TH SEGMENT OF BATCH NO.     BC000720
MS02LBN4 DS    CL1                 LGTH OF 4TH SEGMENT OF BATCH NO.     BC000730
MS02PBN5 DS    CL2                 POSN OF 5TH SEGMENT OF BATCH NO.     BC000740
MS02LBN5 DS    CL1                 LGTH OF 5TH SEGMENT OF BATCH NO.     BC000750
MS02IRL  DS    CL3                 LENGTH OF RECORD INTERNALLY.         BC000760
*                                  IRL - ORL = WORK AREA                BC000770
MS02PID1 DS    CL2                 POSN OF 1ST SEGMENT OF SUBMITTOR ID  BC000780
MS02LID1 DS    CL1                 LGTH OF 1ST SEGMENT OF SUBMITTOR ID  BC000790
MS02PID2 DS    CL2                 POSN OF 2ND SEGMENT OF SUBMITTOR ID  BC000800
MS02LID2 DS    CL1                 LGTH OF 2ND SEGMENT OF SUBMITTOR ID  BC000810
MS02PID3 DS    CL2                 POSN OF 3RD SEGMENT OF SUBMITTOR ID  BC000820
MS02LID3 DS    CL1                 LGTH OF 3RD SEGMENT OF SUBMITTOR ID  BC000830
MS02PSR1 DS    CL2                 POSN OF 1ST SEGMENT OF DETAIL SORT F BC000840
MS02LSR1 DS    CL1                 LGTH OF 1ST SEGMENT OF DETAIL SORT F BC000850
MS02PSR2 DS    CL2                 POSN OF 2ND SEGMENT OF DETAIL SORT F BC000860
MS02LSR2 DS    CL1                 LGTH OF 2ND SEGMENT OF DETAIL SORT F BC000870
MS02PSR3 DS    CL2                 POSN OF 3RD SEGMENT OF DETAIL SORT F BC000880
MS02LSR3 DS    CL1                 LGTH OF 3RD SEGMENT OF DETAIL SORT F BC000890
MS02DLTP DS    CL2                 POSN IN CORRECTION DATA OF DELETE FL BC000900
MS02DLTF DS    CL1                 CHAR IN CORRECTION DATA FOR DELETE   BC000910
MS02LGTH EQU   *-MS02CARD          LENGTH OF DSECT                      BC000920
         MEND                                                           BC000930
./ ADD NAME=MS03                                                        BC000940
         MACRO                                                          BC000950
&NAME    MS03  &DUMMY                                                   BC000960
*********************************************************************** BC000970
*        FORMAT OF MS03 CONTROL CARD                                  * BC000980
*********************************************************************** BC000990
         SPACE 1                                                        BC001000
*        DESCRIBES THE KEY THAT IS TO BE PLACED IN THE CONTROL          BC001010
*         RECORD THAT IS TO BE CONSTRUCTED FROM THE BATCH.              BC001020
*         THE MERE PRECENCE OF THIS CARD REQUESTS THAT THE              BC001030
*         CONTROL RECORD BE CREATED.                                    BC001040
         SPACE 1                                                        BC001050
MS03CARD DSECT                                                          BC001060
MS03ID   DS    CL4                 CARD ID ('MS03')                     BC001070
MS03PCRK DS    CL3                 POSN OF CONTROL RECORD KEY           BC001080
MS03LCRK DS    CL2                 LGTH OF CONTROL RECORD KEY           BC001090
MS03CRK  DS    CL69                CONTROL RECORD KEY (LEFT-ADJUSTED)   BC001100
MS03POSN DS    CL1                 POSITION OF CONTROL RECORD           BC001110
*                                   ' ' - FOLLOWING BATCH               BC001120
*                                   '1' - PRECEDING BATCH               BC001130
MS03LIST DS    CL1                 OUTPUT CONTROL SWITCH :-             BC001140
*                                   ' ' - WRITE ONLY                    BC001150
*                                   '1' - PRINT & WRITE                 BC001160
*                                   '2' - PRINT ONLY                    BC001170
MS03LGTH EQU   *-MS03CARD          LENGTH OF DSECT                      BC001180
         MEND                                                           BC001190
./ ADD NAME=MS04                                                        BC001200
         MACRO                                                          BC001210
&NAME    MS04  &DUMMY                                                   BC001220
*********************************************************************** BC001230
*        FORMAT OF MS04 CONTROL CARD                                  * BC001240
*********************************************************************** BC001250
         SPACE 1                                                        BC001260
*        DESRIBES A SINGLE FIELD WHICH IS TO BE CREATED                 BC001270
*         IN THE CONTROL RECORD THAT IS TO BE CONSTRUCTED               BC001280
*         FROM THE BATCH.                                               BC001290
         SPACE 1                                                        BC001300
MS04CARD DSECT                                                          BC001310
MS04ID   DS    CL4                 CARD ID ('MS04')                     BC001320
MS04FNO  DS    CL2                 CONTROL REC FIELD NO (B1 - B6/RC)    BC001330
MS04PCRF DS    CL3                 POSN OF CONTROL RECORD FIELD         BC001340
MS04LCRF DS    CL2                 LGTH OF CONTROL RECORD FIELD         BC001350
MS04PIND DS    CL1                 PACK INDICATOR ('P' OR BLANK)        BC001360
MS04NDEC DS    CL1                 NO. OF (IMPLIED) DECIMALS            BC001370
MS04PSRC DS    0CL3                POSN OF SOURCE FIELD ( NORMALLY W/S) BC001380
MS04BNO  DS    CL3                 REQUEST FOR BATCH NUMBER ('BNO')     BC001390
         DS    CL64                UNUSED                               BC001400
MS04LGTH EQU   *-MS04CARD          LENGTH OF DSECT                      BC001410
         MEND                                                           BC001420
./ ADD NAME=MS05                                                        BC001430
         MACRO                                                          BC001440
&NAME    MS05  &DUMMY                                                   BC001450
*********************************************************************** BC001460
*        FORMAT OF MS05 CONTROL CARD                                  * BC001470
*********************************************************************** BC001480
         SPACE 1                                                        BC001490
*        DESCRIBES A SINGLE FIELLD IN A BATCH CARD AGAINST              BC001500
*         WHICH DETAIL RECORDS ARE TO BE BALANCED, OR WHICH             BC001510
*         IS TO BE TESTED OR VALIDATED IN SONE WAY.                     BC001520
         SPACE 1                                                        BC001530
MS05CARD DSECT                                                          BC001540
MS05ID   DS    CL4                 CARD ID ('MS05')                     BC001550
MS05FNO  DS   0CL2                 BATCH CARD FIELD NO (A1-A6 / RC)     BC001560
MS05TCDE DS    CL2                  OR NUMERIC TEST CODE                BC001570
MS05PBCT DS    CL2                 POSN OF BATCH CARD TOTAL FIELD       BC001580
MS05LBCT DS    CL2                 LGTH OF BATCH CARD TOTAL FIELD       BC001590
MS05NDEC DS    CL1                 NO. OF (IMPLIED) DECIMALS            BC001600
MS05LNE1 DS    CL16                1ST LINE OF NAME OF TOTAL            BC001610
MS05LNE2 DS    CL16                2ND LINE OF NAME OF TOTAL            BC001620
MS05ABID DS    CL1                 ' ' = BATCH TOTAL IS ALGEBRAIC       BC001630
*                                  '1' = BATCH TOTAL IS BALANCING (-VE) BC001640
MS05ERID DS    CL1                 ' ' = HARD ERROR                     BC001650
*                                  '1' = SOFT ERROR                     BC001660
MS05NEGI DS    0CL9                DEFINITION OF -VE INDICATOR          BC001670
MS05PNEG DS    CL2                 POSN OF -VE INDICATOR                BC001680
MS05LNEG DS    CL1                 LGTH OF -VE INDICATOR                BC001690
MS05IDNG DS    CL6                 LITERAL -VE INDICATOR                BC001700
MS05VALU DS    CL9                 VALUE TO BE BALANCED AGAINST         BC001710
MS05PIND DS    CL1                 PRINTIND INDICATOR                   BC001720
*                                   ' ' - ALWAYS PRINT TOTALS           BC001730
*                                   '1' - ONLY PRINT IF DISCREPANCY     BC001740
         DS    CL16                UNUSED                               BC001750
MS05LGTH EQU   *-MS05CARD          LENGTH OF DSECT                      BC001760
         MEND                                                           BC001770
./ ADD NAME=MS11                                                        BC001780
         MACRO                                                          BC001790
&NAME    MS11  &DUMMY                                                   BC001800
*********************************************************************** BC001810
*        FORMAT OF MS11 CONTROL CARD                                  * BC001820
*********************************************************************** BC001830
         SPACE 1                                                        BC001840
*        DESCRIBES FIELDS IN SPECIFIC TYPES OF DETAIN RECORDS           BC001850
*         WHICH ARE EITHER TO BE BALANCED AGAINST THE BATCH CARD        BC001860
*         OR TESTED OR VALIDATED IN SOME WAY.                           BC001870
         SPACE 1                                                        BC001880
MS11CARD DSECT                                                          BC001890
MS11ID   DS    CL4                 CARD ID ('MS11')                     BC001900
MS11PRTI DS    CL2                 POSN OF RECORD TYPE IDENTIFIER       BC001910
MS11LRTI DS    CL1                 LGTH OF RECORD TYPE IDENTIFIER       BC001920
MS11RTI  DS    CL8                 LITERAL RECORD TYPE IDENTIFIER       BC001930
MS11IGN  DS    CL3                 BLANK OR 'IGN' - DO NOT PROCESS      BC001940
         DS    CL2                 UNUSED                               BC001950
MS11FLD1 DS    0CL10               1ST DATA FIELD DESCRIPTION           BC001960
MS11PDC1 DS    CL2                 POSN OF DATA CARD FIELD 1            BC001970
MS11LDC1 DS    CL2                 LGTH OF DATA CARD FIELD 1            BC001980
MS11DEC1 DS    CL1                 NDEC OF DATA CARD FIELD 1            BC001990
MS11NDC1 DS    CL2                 BATCH CARD FIELD NO (A1 - A6)        BC002000
*                                   OR NUMERIC TEST TYPE OR BLANK       BC002010
MS11NCR1 DS    CL2                 ASSOC CTRL REC FLD NO (B1 -B6) OR BL BC002020
MS11AID1 DS    CL1                 'A' = ACCUMULATE ABSOLUTE VALUES     BC002030
*                                  'P' - INPUT IS PACKED DECIMAL        BC002040
MS11FLD2 DS    CL10                AS MS11PDC1 - MS11AID1               BC002050
MS11FLD3 DS    CL10                AS MS11PDC1 - MS11AID1               BC002060
MS11FLD4 DS    CL10                AS MS11PDC1 - MS11AID1               BC002070
MS11FLD5 DS    CL10                AS MS11PDC1 - MS11AID1               BC002080
MS11FLD6 DS    CL10                AS MS11PDC1 - MS11AID1               BC002090
MS11LGTH EQU   *-MS11CARD          LENGTH OF DSECT                      BC002100
         EJECT                                                          BC002110
*********************************************************************** BC002120
*        FORMAT OF MS12 CONTROL CARD                                  * BC002130
*********************************************************************** BC002140
         SPACE 1                                                        BC002150
*        DESCRIBES NUMERIC FIELDS IN SPECIFIC TYPES OF DETAIL           BC002160
*         RECORDS FOR WHICH A NEGATIVE VALUE IS NOT SHOWN BY A          BC002170
*         '-' OVERPUNCH ON THE JUNIOR DIGIT, BUT BY THE CONTENTS        BC002180
*         OF A SEPARATE FIELD.  IF THE MERE PRESENCE OF A FIELD         BC002190
*         IMPLIES THAT IT IS NEGATIVE, THEN FIELD 'MS12IDNG'            BC002200
*         SHOULD CONTAIN 'NONZERO'.                                     BC002210
*        THIS CARD DESCRIPTION IS AN OVERLAY OF THE MS11 DSECT          BC002220
*         BECAUSE THEY ARE PROCESSED BY COMMON INITIALISATION           BC002230
*         CODING, AND ADDRESSABILITY OF BOTH CARDS AT ONCE              BC002240
*         IS REQUIRED.                                                  BC002250
         SPACE 1                                                        BC002260
*        NOTE THAT THE MS12 CARD USED BY THE ORIGINAL PL/1 BUDGIE3      BC002270
*         WAS OF A DIFFERENT FORMAT, AND CONSEQUENTLY THE TWO ARE NOT   BC002280
*         100% COMPATIBLE.  ( THE DIFFERENCES ARE NECESSITATED BY THE   BC002290
*         LOGIC OF THE CONTROL BLOCK CREATION ROUTINES ).               BC002300
         SPACE 1                                                        BC002310
         ORG   MS11ID              DEFINE OVERLAYING DSECTS             BC002320
MS12ID   DS    CL4                 CARD ID ('MS12')                     BC002330
MS12PRTI DS    CL2                 POSN OF RECORD TYPE IDENTIFIER       BC002340
MS12LRTI DS    CL1                 LGTH OF RECORD TYPE IDENTIFIER       BC002350
MS12RTI  DS    CL8                 LITERAL RECORD TYPE IDENTIFIER       BC002360
MS12IGN  DS    CL3                 BLANK OR 2IGN' - DO NOT PROCESS      BC002370
         DS    CL2                 UNUSED                               BC002380
MS12FLD1 DS    0CL20               1ST DATA FIELD DESCRIPTION           BC002390
MS12PDC1 DS    CL2                 POSN OF DETAIL FIELD                 BC002400
MS12LDC1 DS    CL2                 LGTH OF DETAIL FIELD                 BC002410
MS12DEC1 DS    CL1                 NDEC OF DETAIL FIELD                 BC002420
MS12NDC1 DS    CL2                 BATCH CARD FIELD NO ( A1 - A6 ) OR   BC002430
*                                   NUMERIC TEST TYPE OR BLANK          BC002440
MS12NCR1 DS    CL2                 ASSOC CTRL REC FLD NO (B1-B6) OR BL  BC002450
MS12AID1 DS    CL1                 PACK INDICATOR                       BC002460
*                                   'P' - INPUT IS PACKED DECIMAL       BC002470
*                                   ' ' - INPUT IS DISPLAY NUMERIC      BC002480
MS12PNEG DS    CL2                 POSN OF -VE INDICATOR ID             BC002490
MS12LNEG DS    CL1                 LGTH OF -VE INDICATOR ID             BC002500
MS12NGID DS    CL7                 LITERAL -VE INDICATOR ID             BC002510
MS12FLD2 DS    CL20                AS MS12PDC1 - MS12IDNG               BC002520
MS12FLD3 DS    CL20                AS MS12PDC1 - MS12IDNG               BC002530
MS12LGTH EQU   *-MS11CARD          LENGTH OF DSECT                      BC002540
         MEND                                                           BC002550
./ ADD NAME=MS13                                                        BC002560
         MACRO                                                          BC002570
&NAME    MS13  &DUMMY                                                   BC002580
*********************************************************************** BC002590
*        FORMAT OF MS13 CONTROL CARD                                  * BC002600
*********************************************************************** BC002610
         SPACE 1                                                        BC002620
*        APPLIES TO THE RECORD TYPE SPECIFIED BY THE PRECEDING          BC002630
*         MS11 OR MS12 CARD.  IT DESCRIBES A SINGLE FIELD THAT          BC002640
*         IS TO BE TESTED IN SOME WAY.  OPTIONALLY, THE TEST            BC002650
*         MAY BE RESTRICTED TO RECORDS WITH SPECIFIC VALUES             BC002660
*         IN UP TO THREE SEPARATE FIELDS.                               BC002670
*        IF THERE IS NO PRECEDING MS11 OR MS12 CARD, THEN IT APPLIES    BC002680
*         TO THE PRECEDING MS02 CONTROL CARD, AND DESCRIBES A FIELD     BC002690
*         IN THE BATCH CARD THAT IS TO BE TESTED.                       BC002700
         SPACE 1                                                        BC002710
MS13CARD DSECT                                                          BC002720
MS13ID   DS    CL4                 CARD ID ('MS13')                     BC002730
MS13PRT1 DS    CL3                 POSN OF FIELD COMPARAND 1            BC002740
MS13LRT1 DS    CL1                 LGTH OF FIELD COMPARAND 1            BC002750
MS13PRT2 DS    CL3                 POSN OF FIELD COMPARAND 2            BC002760
MS13LRT2 DS    CL1                 LGTH OF FIELD COMPARAND 2            BC002770
MS13PRT3 DS    CL3                 POSN OF FIELD COMPARAND 3            BC002780
MS13LRT3 DS    CL1                 LGTH OF FIELD COMPARAND 3            BC002790
         ORG   MS13PRT1            REDEFINE OVER MULTI-UE FIELD         BC002800
MS13IND0 DS    0CL4                IST INDICATOR DEFINITION             BC002810
MS13IND  DS    CL2                 NUMBER OF INDICATOR TO BE TESTED     BC002820
MS13ONOF DS    CL2                 DESIRED INDICATOR STATUS ( ON / OF ) BC002830
MS13IND1 DS    CL4                 AS MS13IND - MS13ONOF                BC002840
MS13IND2 DS    CL4                 AS MS13IND - MS13ONOF                BC002850
MS13LTYP DS    CL2                 COMPARISON TYPE                      BC002860
*                                   '  ' - EQUAL                        BC002870
*                                   'EQ' - EQUAL                        BC002880
*                                   'NE' - NOT EQUAL                    BC002890
*                                   ETC                                 BC002900
MS13LIT  DS    CL18                COMPOSITE LITERAL OF COMPARANDS      BC002910
MS13PFLD DS    CL3                 POSN OF FIRLD TO BE TESTED           BC002920
MS13LFLD DS    CL2                 LGTH OF FIELD TO BE TESTED           BC002930
MS13TEST DS    0CL2                TEST TYPE                            BC002940
MS13TST1 DS    CL1                 1ST POSN OF TEST TYPE                BC002950
MS13TST2 DS    CL1                 2ND POSN OF TEST TYPE                BC002960
MS13ERRI DS    CL1                 RESULT INDICATOR - ' ' = HARD ARROR  BC002970
*                                                     '1' = SOFT ARROR  BC002980
*                                                     '2' = DELETE REC  BC002990
*                                                     '3' - SET IND ONY BC003000
MS13CONT DS    CL1                 CONTINUATION INDICATOR               BC003010
*                                   ' ' - CONTINUE PROCESSING THIS CARD BC003020
*                                   '1' - TERMINATE IF THIS TEST FAILS  BC003030
*                                   '2' - TERMINATE IF TEEST SUCCEDDS   BC003040
*                                   '3' - TERMINATE REGARDLESS          BC003050
MS13MSXX DS    CL2                 ID OS ASSOC. MS2X/3X IF RELEVANT     BC003060
MS13RIND DS    CL2                 RSSULT INDICATOR                     BC003070
MS13TMOD DS    CL1                 TEST MODIFIER ( BL, 'B', '*', 'T' )  BC003080
MS13MESS DS    CL30                OPTIONAL ERROR MESSAGE               BC003090
MS13LGTH EQU   *-MS13CARD          LENGTH OF DSECT                      BC003100
         MEND                                                           BC003110
./ ADD NAME=MS14                                                        BC003120
         MACRO                                                          BC003130
&NAME    MS14  &DUMMY                                                   BC003140
*********************************************************************** BC003150
*        FORMAT OF MS14 CONTROL CARD                                  * BC003160
*********************************************************************** BC003170
         SPACE 1                                                        BC003180
*        DESCRIBES A SERIES OF INDICATOR TESTS WHICH, IF NOT SATISFIED, BC003190
*         WILL CAUSE EITHER THE OVERALL BATCH OR AN INDIVIDUAL RECORD   BC003200
*         TO BE FLAGGED WITH AN ERROR.                                  BC003210
*        THE TESTS APPLY EITHER TO THE PRECEDING MS02 CARD ( WHEN IT    BC003220
*         APPLIES TO THE WHHOLE BATCH ) OR TO THE PRECEDING MS11/12     BC003230
*         CARD ( WHEN IT APPLIES TO A SINGLE RECORD ), WHICHEVER WAS    BC003240
*         THE MOST RECENT.                                              BC003250
*        NOTE THAT IF ALL THE RELATIONSHIPS SPECIFIED IN THIS CARD ARE  BC003260
*         SATISFIED, THEN THE RECORD HAS FAILED THE COMPOSITE TEST, AND BC003270
*         IS IN ERROR.                                                  BC003280
         SPACE 1                                                        BC003290
MS14CARD DSECT                                                          BC003300
MS14ID   DS    CL4                 CARD ID ('MS14')                     BC003310
MS14ERRI DS    CL1                 RESULT INDICATOR                     BC003320
*                                   ' ' - HARD ERROR                    BC003330
*                                   '1' - SOFT ERROR                    BC003340
*                                   '2' - DELETE RECORD ('D' ONLY )     BC003350
*                                   '3' - SET INDICATOR ONLY            BC003360
MS14RIND DS    CL2                 RESULT INDICATOR                     BC003370
MS14TST0 DS    0CL4                DEFINE 1ST INDICATOR TEST            BC003380
MS14IND  DS    CL2                 INDICATOR TO BE TESTED               BC003390
MS14ONOF DS    CL2                 REQUIRED IND STATUS ( ON / OF )      BC003400
MS14TST1 DS    CL4                 AS MS14IND - MS14ONOF                BC003410
MS14TST2 DS    CL4                 AS MS14IND - MS14ONOF                BC003420
MS14TST3 DS    CL4                 AS MS14IND - MS14ONOF                BC003430
MS14TST4 DS    CL4                 AS MS14IND - MS14ONOF                BC003440
MS14TST5 DS    CL4                 AS MS14IND - MS14ONOF                BC003450
MS14TST6 DS    CL4                 AS MS14IND - MS14ONOF                BC003460
MS14TST7 DS    CL4                 AS MS14IND - MS14ONOF                BC003470
MS14TST8 DS    CL4                 AS MS14IND - MS14ONOF                BC003480
MS14PFLD DS    CL2                 POSN OF FIELD TO BE UNDERLINED (OPT) BC003490
MS14LFLD DS    CL2                 LGTH OF FIELD TO BE UNDERLINED (OPT) BC003500
MS14BORD DS    CL1                 LEVEL INDICATOR:                     BC003510
*                                   'B' - APPLIES TO TOTAL BATCH        BC003520
*                                   'D' - APPLIES TO SINGLE RECORD      BC003530
*                                   ' ' - APPLIES TO SINGLE RECORD      BC003540
*                                   'C' - BATCH LEVEL, BUT IN MS13 SEQ  BC003550
         DS    CL2                 UNUSED                               BC003560
MS14MESS DS    CL30                OPTIONAL ERROR MESSAGE               BC003570
MS14LGTH EQU   *-MS14CARD          LENGTH OF SDECT                      BC003580
         MEND                                                           BC003590
./ ADD NAME=MS15                                                        BC003600
         MACRO                                                          BC003610
&NAME    MS15  &DUMMY                                                   BC003620
*********************************************************************** BC003630
*        FORMAT OF MS15 CONTROL CARD                                  * BC003640
*********************************************************************** BC003650
         SPACE 1                                                        BC003660
*        DESCRIBES A SINGLE FIELD IN A DETAIL RECORD AGAINST WHICH      BC003670
*         OTHER FIELDS IN THE SAME RECORD ARE TO BE BALANCED.           BC003680
         SPACE 1                                                        BC003690
MS15CARD DSECT                                                          BC003700