         MACRO                                                          OS000220
&NAME    BNER  &RX                                                      OS000230
&NAME    BCR   7,&RX                                                    OS000240
         MEND                                                           OS000250
