         MACRO                                                          OS000320
&NAME    BNLR  &RX                                                      OS000330
&NAME    BCR   11,&RX                                                   OS000340
         MEND                                                           OS000350
