         MACRO                                                          OS000620
&NAME    BPR   &RX                                                      OS000630
&NAME    BCR   2,&RX                                                    OS000640
         MEND                                                           OS000650
