         MACRO                                                          OS000670
&NAME    BZR   &RX                                                      OS000680
&NAME    BCR   8,&RX                                                    OS000690
         MEND                                                           OS000700
