         MACRO
&NAME    LTH   &R,&FLD
.*
.*       LOAD HALFWORD AND TEST REGISTER CONTENTS
.*
&NAME    LH    &R,&FLD 0           LOAD HALFWORD INTO REGISTER
         LTR   &R,&R 0             TEST REGISTER VALUE
         MEND
