         MACRO                                                          OS000020
&NAME    BER   &RX                                                      OS000030
&NAME    BCR   8,&RX                                                    OS000040
         MEND                                                           OS000050
