         MACRO                                                          OS000070
&NAME    BHR   &RX                                                      OS000080
&NAME    BCR   2,&RX                                                    OS000090
         MEND                                                           OS000100
