         MACRO                                                          OS000120
&NAME    BLR   &RX                                                      OS000130
&NAME    BCR   4,&RX                                                    OS000140
         MEND                                                           OS000150
