         MACRO                                                          OS000170
&NAME    BMR   &RX                                                      OS000180
&NAME    BCR   4,&RX                                                    OS000190
         MEND                                                           OS000200
