         MACRO                                                          OS000270
&NAME    BNHR  &RX                                                      OS000280
&NAME    BCR   13,&RX                                                   OS000290
         MEND                                                           OS000300
