         MACRO                                                          OS000370
&NAME    BNMR  &RX                                                      OS000380
&NAME    BCR   11,&RX                                                   OS000390
         MEND                                                           OS000400
