         MACRO                                                          OS000420
&NAME    BNOR  &RX                                                      OS000430
&NAME    BCR   14,&RX                                                   OS000440
         MEND                                                           OS000450
