         MACRO                                                          OS000470
&NAME    BNPR  &RX                                                      OS000480
&NAME    BCR   13,&RX                                                   OS000490
         MEND                                                           OS000500
