         MACRO                                                          OS000520
&NAME    BNZR  &RX                                                      OS000530
&NAME    BCR   7,&RX                                                    OS000540
         MEND                                                           OS000550
