         MACRO                                                          OS000570
&NAME    BOR   &RX                                                      OS000580
&NAME    BCR   1,&RX                                                    OS000590
         MEND                                                           OS000600
