         MACRO
&NAME    LTRR  &R,&S
.*
.*       PURIFY HIGH ORDER BYTE AND TEST REGISTER CONTENTS
.*
         LCLC  &T
&T       SETC  '&R'
         AIF   ('&S' EQ '').A01
&T       SETC  '&S'
.A01     ANOP
&NAME    LA    &R,0(,&T) 0         PURIFY HIGH-ORDER BYTE
         LTR   &R,&R 0             TEST REGISTER VALUE
         MEND
