         MACRO -- NULL -- DEFINE A SYMBOL                               NU002000
&NAME    NULL                                                           NU004000
&NAME    DS    0H                                                       NU006000
         MEND                                                           NU008000
