         MACRO
&NAME    PURGE &LIST
         AIF   ('&LIST' EQ '').E1
&NAME    IHBINNRA &LIST 0          LOAD REG 1
         SVC   16 0                ISSUE PURGE SVC
         MEXIT
.E1      IHBERMAC 01,147 0         LIST ADDR MISSING
         MEND
