         MACRO
&NAME    RESTORE &LIST
         AIF   ('&LIST' EQ '').E1
&NAME    IHBINNRA &LIST 0          LOAD REG 1
         SVC   17 0                ISSUE SVC FOR RESTORE
         MEXIT
.E1      IHBERMAC 01,150 0         LIST ADDR MISSING
         MEND
