         MACRO -- $MODRET -- RETURN TO MAIN MOD CONTROL SECTION         MACL0130
&NAME  $MODRET &DOC=NO                                                  MACL0140
         AIF   ('&DOC' NE 'YES').NODOC                                  MACL0150
         SPACE 1                                                        MACL0160
*        THE CORRECT FORM IS :-                                         MACL0170
*     $MODRET  <DOC=NO | YES>      PRODUCE DOCUMENTATION ( DEFAULT NO ) MACL0180
         SPACE 1                                                        MACL0190
*        THE PURPOSE OF THIS MACRO IS TO RETURN CONTROL FROM A SEGMENT  MACL0200
*         TO THE MAIN CONTROL MODULE.  ( TYPICALLY, THE MAIN MODULE     MACL0210
*         WILL BE A 'ROUTER', AND THE SEGMENT AN INDIVIDUAL MOD ).      MACL0220
*         NOTE THAT THE LINK ADDRESS IS RETRIEVED FROM THE APCE AND NOT MACL0230
*         THE PCE - THIS ALLOWS A $CBAL TO BE ISSUED FROM WITHIN A HASP MACL0240
*         SEGMENT TO A ROUTINE THAT IS WITHIN A MOD SEGMENT.            MACL0250
         SPACE 1                                                        MACL0260
.NODOC   ANOP                                                           MACL0270
         AIF   ('&NAME' NE '').OKNAME                                   MACL0280
         MNOTE 8,'NAME MUST BE SUPPLIED FOR SEGMENT EXIT'               MACL0290
.OKNAME  ANOP                                                           MACL0300
&NAME    L     LINK,APCERETN        LOAD RETURN ADDRESS                 MACL0310
         BR    LINK                 AND RETURN TO MAIN PROCESSOR        MACL0320
         MEND                                                           MACL0330
