         MACRO                                                          MACX0130
&NAME   $REGSAVE &SAVE=,&DOC=NO                                         MACX0140
         GBLA  &REGSC                                                   MACX0150
         GBLA  &REGDTAB(16)                                             MACX0160
         GBLC  &REGRTAB(16)                                             MACX0170
         GBLA  &REGNREG                                                 MACX0180
         GBLC  &REGSD                                                   MACX0190
         LCLA  &LOOP,&DISP                                              MACX0200
         LCLA  &N,&S                                                    MACX0210
         LCLC  &R,&P,&PP                                                MACX0220
         AIF   ('&DOC' NE 'YES').NODOC                                  MACX0230
         SPACE 1                                                        MACX0240
*        THE CORRECT FORM IS :-                                         MACX0250
*       $REGSAVE <SAVE=(RN,..RN)>  REGISTERS TO BE SAVED - DEFAULT NONE MACX0260
*              <DOC=NO | YES>      PRODUCE DOCUMENTATION ( DEFAULT NO ) MACX0270
         SPACE 1                                                        MACX0280
*        THE PURPOSE OF THIS MACRO ( AND ITS COMPANION '$REGREST' ) IS  MACX0290
*         TO ALLOW REGISTERS TO BE SAVED AND RESTORED WITHIN A ROUTINE  MACX0300
*         OTHER THAN BY THE $SUBIN/$SUBOUT SAVE/RESTORE MECHANISM.      MACX0310
*         THESE MACROS USE THE SAME TECHNOLOGY HOWEVER, UTILISING THE   MACX0320
*         POOL OF REGISTER SAVE AREAS WITHIN THE PRIMARY APCE.          MACX0330
*        NOTE THAT, AS WITH THE $SUBIN/$SUBOUT MACROS, THERE ARE SOME   MACX0340
*         RESTRICTIONS AS TO THEIR USE :-                               MACX0350
*         . $REGREST MUST FOLLOW THEIR ASSOCIATED $REGSAVES ( BOTH      MACX0360
*           PHYSICALLY AND LOGICALLY ), AND IF ONE IS EXECUTED THEN THE MACX0370
*           OTHER MUST BE EXECUTED.  NOTE, HOWEVER, THAT $REGREST/      MACX0380
*           $REGSAVE PAIRS MAY BE NESTED TO ANY DEPTH.                  MACX0390
*         . A $REGSAVE MUST BE ALWAYS FOLLOWED BY A $REGREST            MACX0400
         SPACE 1                                                        MACX0410
*        NOTE ALSO THAT R9 IS A WORK REGISTER FOR $REGSAVE/$REGREST     MACX0420
*         AND IS CORRUPTED BY THE PROCESS OF EXECUTING THEM.            MACX0430
         EJECT                                                          MACX0440
*********************************************************************** MACX0450
*        DOCUMENTED EXPANSION OF $REGSAVE MACRO ( CONT'D )              MACX0460
*********************************************************************** MACX0470
         SPACE 1                                                        MACX0480
.NODOC   ANOP                                                           MACX0490
         AIF   ('&REGSD' NE 'ON').PREVOK                                MACX0500
         MNOTE 16,'PREVIOUS $REGSAVE NOT FOLLOWED BY A $REGREST'        MACX0510
.PREVOK  ANOP                                                           MACX0520
&REGSD  SETC  'ON'                                                      MACX0530
         AIF   ('&SAVE' NE '').START                                    MACX0540
&NAME    DS    0H                  ENTER ROUTINE                        MACX0550
         MEXIT                                                          MACX0560
.START   ANOP                                                           MACX0570
&LOOP    SETA  0                                                        MACX0580
.LOOPE1  ANOP                                                           MACX0590
&LOOP    SETA  &LOOP+1                                                  MACX0600
         AIF   (&LOOP GT 16).LOOPX1                                     MACX0610
&REGRTAB(&LOOP) SETC ''                                                 MACX0620
         AGO   .LOOPE1                                                  MACX0630
.LOOPX1  ANOP                                                           MACX0640
&LOOP    SETA  0                                                        MACX0650
.LOOPE2  ANOP                                                           MACX0660
&LOOP    SETA  &LOOP+1                                                  MACX0670
         AIF   (&LOOP GT 16).LOOPX2                                     MACX0680
&REGDTAB(&LOOP) SETA 0                                                  MACX0690
         AGO   .LOOPE2                                                  MACX0700
.LOOPX2  ANOP                                                           MACX0710
&NAME    L     R9,APCEBCTR         GET COUNT OF SLOTS IN USE            MACX0720
         SLL   R9,2                MULTIPLY BY 4 FOR INDEX              MACX0730
         LA    R9,APCEMSA(R9)      POINT AT 1ST AVAILABLE SLOT          MACX0740
&LOOP    SETA  0                                                        MACX0770
&DISP    SETA  0                                                        MACX0780
&REGNREG SETA  N'&SAVE                                                  MACX0790
.LOOP    ANOP                                                           MACX0800
&LOOP    SETA  &LOOP+1                                                  MACX0810
         AIF   (&LOOP GT &REGNREG).LOOPX                                MACX0820
         ST    &SAVE(&LOOP),&DISP.(R9) PRESERVE REGISTER IN NEXT SLOT   MACX0830
&REGDTAB(&LOOP) SETA &DISP                                              MACX0840
&REGRTAB(&LOOP) SETC '&SAVE(&LOOP)'                                     MACX0850
&DISP    SETA  &DISP+4                                                  MACX0860
         AGO   .LOOP                                                    MACX0870
.LOOPX   ANOP                                                           MACX0880
         L     R9,APCEBCTR         GET COUNT OF SLOTS USED UP TO NOW    MACX0890
         LA    R9,&REGNREG.(,R9)   INCREMENT BY SLOTS USED HERE         MACX0900
         ST    R9,APCEBCTR         PRESERVE UPDATED COUNT OF USED SLOTS MACX0910
         MEXIT                                                          MACX0920
         MEND                                                           MACX0930
