         MACRO                                                          MACN0130
&NAME    $RTIN &DOC=NO                                                  MACN0140
         GBLC  &PRINT,&GEN,&DATA                                        MACN0150
         PUSH  PRINT                                                    MACN0160
         PRINT &PRINT                                                   MACN0170
         SPACE 1                                                        MACN0180
         AIF   ('&DOC' NE 'YES').NODOC                                  MACN0190
*        THE CORRECT FORM IS :-                                         MACN0200
* NAME   $RTIN <DOC=NO | YES>      PRODUCE DOCUMENTATION ( DEFAULT NO ) MACN0210
         SPACE 1                                                        MACN0220
*        THE PURPOSE OF THIS MACRO IS TO PROVIDE AN ENTRY POINT TO A    MACN0230
*        MODIFICATION INITIALISATION  SEGMENT.  APPROPRIATE USING       MACN0240
*        STATEMENTS ARE GENERATED TO ESTABLISH ADDRESSABILITY FOR THE   MACN0250
*        ROUTINE AND TO THE HCT, AHCT, PCE AND APCE.  UPON ENTRY,       MACN0260
*        R1 POINTS TO A PARAMETER LIST OF USEFUL ADDRESSES.             MACN0270
*        AS THIS MACRO ITSELF USES THE PGMIN MACRO,CONTROL IS           MACN0280
*        RETURNED WITH A PGMOUT MACRO.IF A RETURN CODE OTHER THAN       MACN0290
*        ZERO IS GENERATED THE ADDRESS OF A MESSAGE IS PLACED IN        MACN0300
*        THE PARAMETER CONTROL BLOCK PASSED FROM JES2B001.              MACN0310
         SPACE 1                                                        MACN0320
.NODOC   ANOP                                                           MACN0330
         AIF   ('&NAME' NE '').A                                        MACN0340
         MNOTE 8,'NAME FIELD MUST BE PROVIDED'                          MACN0350
         MEXIT                                                          MACN0360
.A       AIF   (K'&NAME LT 6 OR K'&NAME GT 8).SEGERR1                   MACN0370
         AIF   ('&NAME'(1,5) EQ 'JES2B').AA                             MACN0380
         AIF   ('&NAME'(1,5) EQ 'JES2J').AA                             MACN0390
         AGO   .SEGERR2                                                 MACN0400
.SEGERR1 MNOTE 8,'NAME FIELD OF INCORRECT LENGTH'                       MACN0410
         MEXIT                                                          MACN0420
.SEGERR2 MNOTE 8,'NAME FIELD MUST BE JES2BNNN OR JES2JNNN'              MACN0430
         MEXIT                                                          MACN0440
.AA      ANOP                                                           MACN0450
&NAME    TITLE '&NAME - JES2 INITIALISTAION OPTION PROCESSOR'           MACN0460
&NAME    CSECT .                   INITIALISATION PROGRAM               MACN0470
         PGMIN EQUATES=NO,USING=(R13,R12) CREATE SAVE AREA AND CHAIN IT MACN0480
         $DATE DOC=&DOC            CREATE TIME/DATE STAMP               MACN0490
         B     PROCESS .           SKIP CONSTANTS                       MACN0500
         SPACE 2                                                        MACN0510
*********************************************************************** MACN0520
*        CONSTANTS COMMON TO ALL ROUTINES.                            * MACN0530
*********************************************************************** MACN0540
         SPACE 1                                                        MACN0550
PARAMETR DC    F'0'                PARAMETER LIST ADDRESS               MACN0560
         $CBPR DOC=&DOC            GENERATE MODS CBPR DSECT             MACN0565
         $APCE DOC=&DOC            GENERATE APCE DSECT                  MACN0570
         $AHCT DOC=&DOC            GENERATE AHCT DSECT                  MACN0580
         $ADCT DOC=&DOC            GENERATE ADCT DSECT                  MACN0590
         $KEYCHAN DOC=&DOC         GENERATE KEY DESCRIPTOR DSECT        MACN0600
         $VERBDSC DOC=&DOC         GENERATE VERB DESCRIPTOR DSECT       MACN0610
         $RECAREA DOC=&DOC         GENERATE RECORD AREA DSECT           MACN0620
         $HCT  DOC=&DOC            GENERATE HCT DSECT                   MACN0630
         $PCE  DOC=&DOC            GENERATE PCE DSECT                   MACN0640
         SPACE 1                                                        MACN0650
         DROP  SAVE                DROP PCE ADDRESSABILITY              MACN0660
         USING SAVEFLD,R13,R12     RE-ESTABLISH PROGRAM BASE REGS       MACN0670
         $DCT  DOC=&DOC            GENERATE DCT DSECT                   MACN0680
         TITLE '&NAME - PARAMETER LIST FORMAT'                          MACN0690
*********************************************************************** MACN0700
*        PARAMETER LIST FORMAT                                        * MACN0710
*********************************************************************** MACN0720
         SPACE 2                                                        MACN0730
PARAMS   DSECT .                   PARAMETER LIST BLOCK                 MACN0740
ARECAREA DS    F .                 ADDRESS OF RECORD SAVE AREA          MACN0750
AKEYCHAN DS    F .                 ADDRESS OF KEYWORD DESCRIPTOR        MACN0760
LVERBDAT DS    0CL1 .              LENGTH OF VERB DATA                  MACN0770
AVERBDAT DS    F .                 ADDRESS OF VERB DATA PORTION         MACN0780
AVERBBLK DS    F .                 ADDRESS OF VERB DESCRIPTOR ELEMENT   MACN0790
AMESSAGE DS    F .                 ADDRESS FOR AN ERROR MESSAGE         MACN0800
         SPACE 1                                                        MACN0810
*********************************************************************** MACN0820
*        REGISTER USAGE                                               * MACN0830
*********************************************************************** MACN0840
         SPACE 1                                                        MACN0850
*        R0    WORK REGISTER                                            MACN0860
*        R1    PARAMETER LIST ADDRESS                                   MACN0870
*        R2    WORK REGISTER                                            MACN0880
*        R3    RECORD SAVE AREA POINTER                                 MACN0890
*        R4    SUB-ROUTINE LINKAGE / WORK                               MACN0900
*        R5    KEYWORD BLOCK POINTER                                    MACN0910
*        R6    KEYWORD DATA POINTER                                     MACN0920
*        R7    VERB DESCRIPTOR POINTER                                  MACN0930
*        R8    BASE1 - JES2 NUCLEUS ADDRESSABILITY                      MACN0940
*        R9    ADCT ADDRESSABILITY                                      MACN0950
*        R10   PARAMETER LIST ADDRESSABILITY                            MACN0960
*        R11   WORK REGISTER                                            MACN0970
*        R12   SECONDARY BASE REGISTER                                  MACN0980
*        R13   SAVE AREA CHAINING & PRIMARY BASE REGISTER               MACN0990
*        R14   LINKAGE REGISTER                                         MACN1000
*        R15   LINKAGE REGISTER                                         MACN1010
&SYSECT  CSECT .                   END OF PARAMETER LIST                MACN1020
         SPACE 1                                                        MACN1030
         POP   PRINT                                                    MACN1040
         PRINT &GEN,&DATA          SET ASSEMBLY PRINT OPTIONS           MACN1050
         TITLE '&NAME - MAIN LINE LOGIC'                                MACN1060
PROCESS  DS    0H .                ESTABLISH DSECT ADDRESSABILITIES     MACN1070
         ST    R1,PARAMETR         SAVE PARAMETER LIST ADDRESS          MACN1080
         LR    R10,R1              ESTABLISH PARAMETER POINTER          MACN1090
         USING PARAMS,R10          ESTABLISH PARAMETER ADDRESSABILITY   MACN1100
         L     R3,ARECAREA         PICK UP RECORD AREA                  MACN1110
         LM    R5,R7,AKEYCHAN      KEYWORD,DATA,VERB DESCRIPTOR         MACN1120
         SPACE 1                                                        MACN1130
         USING RECAREA,R3          ADDRESS RECORD SAVE AREA             MACN1140
         USING KEYCHAIN,R5                 KEYWORD CHAIN                MACN1150
         USING VERBDESC,R7                 VERB DESCRIPTOR BLOCK        MACN1160
         SPACE 3                                                        MACN1170
.END     MEND                                                           MACN1180
