         MACRO                                                          MADI0130
&NAME   $UDUMP  &CODE,&EXIT=,&DOC=NO                                    MADI0140
         GBLC  &SRVRTN                                                  MADI0150
         LCLC  &R,&T,&NAME1                                             MADI0160
         LCLA  &N                                                       MADI0170
         AIF   ('&DOC' NE 'YES').NODOC                                  MADI0180
         SPACE 1                                                        MADI0190
*        CORRECT FORM IS :-                                             MADI0200
*        $UDUMP <CODE>             DUMP CODE                            MADI0210
*              <EXIT=ADDR>         ADDRESS TO WHICH TO PASS CONTROL     MADI0220
*                                  UPON RETURN FROM UDUMP SERVICE ROUTI MADI0230
*              <DOC=NO | YES>      REQUEST FOR DOCUMENTATION            MADI0240
         SPACE 1                                                        MADI0250
*        THE PURPOSE OF THIS MACRO IS TO HIGHLIGHT INTERNAL ERRORS.     MADI0260
*         THE SERVICE ROUTINE 'UDUMP' IS INVOKED TO ISSUE MESSAGES TO   MADI0270
*         THE OPERATOR IDENTIFYING THE NATURE OF THE ERROR AND THE      MADI0280
*         IDENTITY OF THE CULPRIT, TO DISABLE THE APPROPRIATE MRCB TO   MADI0290
*         PREVENT THE ROUTINE GETTING CONTROL AGAIN, AND TO ISSUE SDUMP MADI0300
*         TO OBTAIN DEBUGGING INFORMATION.                              MADI0310
*        UPON RETURN, CONTROL IS PASSED TO THE SPECIFIED EXIT ADDRESS.  MADI0320
         SPACE 1                                                        MADI0330
.NODOC   ANOP                                                           MADI0340
         AIF   ('&SRVRTN' EQ 'YES').SRVYES                              MADI0350
&NAME $SRVSAVE SAVE=LINK           PRESERVE LINK REGISTER               MADI0360
         AGO   .ASKALL                                                  MADI0370
.SRVYES  ANOP                                                           MADI0380
.NAME   $SRVSAVE SAVE=(LINK,BASE3) PRESERVE BASE3 AND LINK ADDRESS      MADI0390
.ASKALL  ANOP                                                           MADI0400
         LA    R1,&CODE            SET DUMP CODE IN R1                  MADI0410
         LA    R9,AHCT1RTN+(UDUMP*MRCBLGTH) GET ROUTINE MRCB            MADI0420
         CLI   MRCBAV-MRCBDSCT(R9),C'Y' IS IT AVAILABLE?                MADI0430
         BNE   *+4+4+2             NO,SO DO NOT ATTEMPT IT              MADI0440
         L     BASE3,MRCBRADR-MRCBDSCT(R9) YES,GET ITS ADDRESS          MADI0450
         BALR  LINK,BASE3          PERFORM SERVICE ROUTINE 'UDUMP'      MADI0460
      $SRVREST ,                   RESTORE SAVED REGISTERS              MADI0470
         AIF   ('&EXIT' EQ '').NOEXIT                                   MADI0480
         B     &EXIT               GO TO EXIT ROUTINE                   MADI0490
.NOEXIT  ANOP                                                           MADI0500
         MEND                                                           MADI0510
