         MACRO
&NAME    BMR   &RX
&NAME    BCR   4,&RX
         MEND
