         MACRO
&NAME    BNHR  &RX
&NAME    BCR   13,&RX
         MEND
