         MACRO
&NAME    BNLR  &RX
&NAME    BCR   11,&RX
         MEND
