         MACRO
&NAME    BNMR  &RX
&NAME    BCR   11,&RX
         MEND
