         MACRO
&NAME    BNPR  &RX
&NAME    BCR   13,&RX
         MEND
