         MACRO
&NAME    BNZR  &RX
&NAME    BCR   7,&RX
         MEND
