FAIR     TITLE 'O.S. FILE ACCESS INTERFACE ROUTINES'
***********************************************************************
*RECORD OF CHANGES MADE TO THIS MODULE
***********************************************************************
*
*08/27/75  MASTMOD RETURNS A SPECIAL CODE IN REG 0 IF A PROD2 MODULE
*          IS RETRIEVED (THIS IS NEEDED BY ROSCOE ROSDATA PROGRAM)
***********************************************************************
         SPACE 3
*MACRO FOR USE AT START OF EACH FAIR ROUTINE.  IT SAVES REGISTERS,
*ESTABLISHES COVER REGISTER, AND SETS UP SAVE AREA LINKAGES
         MACRO
         SETUP &NAME
         ENTRY &NAME
&NAME    STM   14,12,12(13)    SAVE REGISTERS
         USING &NAME,15        SET TEMP COVER (FOR NEXT LINE)
         L     RBAS1,=A(COVER) ESTABLISH PERMANENT COVER
         DROP  15
         BAL   REX,SAVE        SET UP SAVE AREA LINKAGE + 2ND COVER REG
         MEND
         EJECT
FAIR     CSECT
         SPACE 2
         PRINT NOGEN,NODATA
         SPACE 2
*REGISTER DEFINITIONS
         SPACE 1
R0       EQU   0
R1       EQU   1
R2       EQU   2
R3       EQU   3
R4       EQU   4
R5       EQU   5
R6       EQU   6
R7       EQU   7
R8       EQU   8
R9       EQU   9
REX      EQU   10
RBAS1    EQU   11
RBAS2    EQU   12
RSAV     EQU   13
R14      EQU   14
R15      EQU   15
         SPACE 2
*FOLLOWING REGISTER DEFINITIONS ARE FOR USE WITH ROUTINES TAKEN FROM
*REGULAR LIBRARIAN PROGRAM.  DO NOT USE FOR OTHER PURPOSES
***** REGISTERS 2, 3, 11, AND 12 MUST NOT BE REDEFINED IN ORDER TO
***** AVOID ANY CONFLICTS WITH THE USE OF THE DEFINITIONS ABOVE
         SPACE 1
RWK      EQU   4
RW1      EQU   5
RW2      EQU   6
RW3      EQU   7
RLNK     EQU   8
RGO      EQU   9
RMAST    EQU   10
*SKIP REDEFINING REGS 11 AND 12 (THEY ARE COVER REGISTERS)
RP2      EQU   13
RT1      EQU   14
RT2      EQU   15
         EJECT
*LIST OF ENTRY POINTS FOR THOSE USERS WHO WISH TO LINK EDIT THE FAIR
*ROUTINES AS A SEPARATE LOAD MODULE RATHER THAN WITH THE DRIVER.
         SPACE 1
         ENTRY NTRYLIST
NTRYLIST DC    A(MASTOPN)
         DC    A(MASTMOD)
         DC    A(MASTRCD)
         DC    A(MASTHST)
         DC    A(MASTCLS)
         SPACE 2
         DC    C'VERSION 1.3'
         SPACE 2
COVER    DS    0D              1ST COVER REGISTER IS SET TO THIS POINT
         SPACE 1
         USING COVER,RBAS1
         USING COVER+4096,RBAS2
         SPACE 3
***********************************************************************
*SOME NOTES ON REGISTER USAGE
*RBASE IS USED AS A BASE REGISTER AND MAY NEVER BE DESTROYED
*REGISTERS R2, R3, AND R4 GENERALLY HOLD USER PARAMETER ADDRESSES AND
*SHOULD NOT BE DESTROYED.  PRESERVATION OF R3 IS ESPECIALLY IMPORTANT
*SINCE THE CODING AT LABEL 'HELP' DEPENDS ON THIS BEING SET TO A
*RETURN CODE ADDRESS.  FOR SOME ROUTINES, R5 AND R6 MAY ALSO HOLD
*PARAMETER ADDRESSES AND SHOULD BE PRESERVED AS NECESSARY.
***********************************************************************
         SPACE 5
*SUBROUTINE MASTOPN
*OPEN MASTER FILE.  ARGUMENTS ARE -
*        16 BYTE AREA FOR VOLSER AND DATE/TIME IF TAPE MASTERS
*        RETURN CODE (1 EBCIDIC BYTE)
*        16 BYTE AREA FOR MASTER AND CYCLE DD NAMES
*        NUMBER OF BUFFERS (1 EBCIDIC BYTE)
*        LIST OF BUFFER ADDRESSES IF USER WISHES TO PROVIDE BUFFERS
         SPACE 1
         SETUP MASTOPN         ESTABLISH COVER, SET UP SAVE AREAS
         SPACE 1
         BAL   REX,PARM        PICK UP USER PARAMETERS
*        CALLING ARGUMENTS ARE NOW IN REGISTERS STARTING WITH R2
         SPACE 1
         TM    GFLG,BMOP       IF A MASTER IS ALREADY OPEN, TAKE
         BO    OPN12              ERROR PATH
         NI    GFLG,255-BMDM   SET DISK MASTER FLAG OFF
         MVI   MFLG,X'00'      SET MISC FLAG BITS = 0
         LTR   R4,R4           JUMP IF USER OMITTED DD NAMES
         BZ    OPN8
         CLI   8(R4),C' '      JUMP IF 2ND DDNAME IS NOT BLANKS
         BNE   OPN4
         SPACE 1
*DISK MASTER
         SPACE 1
         MVC   DMAST+40(8),0(R4) PUT DDNAME INTO DCB
         RDJFCB DMAST          READ DISK MASTER JFCB
OPN2     MVC   DSN(44),JF      SAVE DSNAME FOR ENQ/DEQ OPERATIONS
         EXTRACT WORK,FIELDS=TIOT  GO THROUGH THE TIOT AND OBTAIN THE
         L     R14,WORK              UCB ADDRESS FOR THE MASTER FILE.
         LA    R14,24(R14)           THIS IS NEEDED FOR THE 'RESERVE'
OPN2B    CLC   DMAST+40(8),4(R14)    OF THE MASTER FILE.
         BE    OPN2D
         XR    R15,R15
         IC    R15,0(R14)
         AR    R14,R15
         CLC   0(4,R14),=A(0)
         BE    OPN10           JUMP IF DD STATEMENT FOR MASTER OMITTED
         B     OPN2B
OPN2D    LA    R8,16(R14)      SET R8 TO POINT TO WORD WITH UCB ADDRESS
         ENQ   (QNAME,DSN,S,44,SYSTEM)  ,  ENQ MASTER FILE
         SPACE 1
         OPEN  DMAST           OPEN DISK MASTER
         TM    DMAST+48,X'10'  JUMP IF DD STATEMENT OMITTED
         BZ    OPN10
         MVC   BLSIZ,DMAST+62  GET MASTER FILE BLOCK SIZE
         OI    GFLG,BMDM       SET FLAG TO INDICATE DISK MASTER
         BAL   REX,OPN20       ALLOCATE MASTER FILE BUFFERS
         L     R0,ABUF         READ 1ST BLOCK OF DISK MASTER
         LA    R1,=AL3(0)
         BAL   REX,READ
         BAL   REX,CHK         CHECK THE READ
         L     R1,ABUF         SET R1 TO START OF 1ST BLOCK
         CLC   0(11,R1),=C'ADR LIBRF01'
         BNE   OPN11           JUMP IF IMPROPER FORMAT ON DISK MASTER
         OI    USEBL2,QUSEBL2  MISC INITIALIZATION
         XC    SDMC,SDMC
         MVC   SDNB,=AL3(3)
         MVC   SDBF,ABUF
         SPACE 1
*BOTH TAPE AND DISK MASTERS COME HERE
         SPACE 1
OPN3     OI    GFLG,BMOP       SET OPEN FLAG
         NI    GFLG,255-BMOM   MISC INITIALIZATION
         MVI   0(R3),C'0'      SET RETURN CODE OF '0'
         LH    R1,BLSIZ        PUT BLOCK SIZE IN R1 FOR A/F AND M/C
         B     RET             TO RETURN PATH
         SPACE 2
*TAPE MASTER
         SPACE 1
OPN4     MVC   CYCLE+40(8),0(R4)  PUT DD NAMES INTO DCB BLOCKS
         MVC   TMAST+40(8),8(R4)
         MVI   JF,X'FF'        SET FLAG TO TEST FOR MISSING JFCB
         RDJFCB TMAST          READ THE INPUT TAPE JFCB
         CLI   JF,X'FF'        JUMP IF NO JFCB READ IN (MISSING DD)
         BE    OPN10
         CLI   0(R4),C' '      JUMP IF USER OMITTED THE DD NAME OF THE
         BE    OPN6               CYCLE FILE (MEANS NO CYCLE CONTROL)
         OPEN  CYCLE           OPEN CYCLE CONTROL FILE
         TM    CYCLE+48,X'10'  JUMP IF CYCLE DD STATEMENT OMITTED
         BZ    OPN14
         READ  CYCDECB,SF,CYCLE,CYCA,12 READ 1ST 12 BYTES OF THE
         CHECK CYCDECB                     CYCLE CONTROL FILE
         CLOSE CYCLE           CLOSE CYCLE FILE
         CLI   CYCA,C'F'       JUMP IF 1ST BYTE OF CYCLE FILE INVALID
         BNE   OPN11
         MVC   JF+118(6),CYCA+3 FILL IN VOLSER OF INPUT TAPE
         MVI   JF+117,X'01'
         MVI   JF,C' '         SET DSNAME OF 'DS' FOLLOWED BY
         MVC   JF+1(43),JF        THE VOLUME SERIAL NUMBER
         MVC   JF(2),=C'DS'
         MVC   JF+2(6),JF+118
OPN6     OPEN  TMAST,TYPE=J    OPEN TAPE MASTER
         TM    TMAST+48,X'10'  JUMP IF NO DD CARD (THIS TEST REDUNDANT
         BZ    OPN10             FOR CYCLE CONTROL - NEEDED FOR NO CYC)
         MVC   BLSIZ,TMAST+62  GET MASTER FILE BLOCK SIZE
         BAL   REX,OPN20       ALLOCATE MASTER FILE BUFFERS
         MVC   LOC,EBT         FORCE READ OF NEW BLOCK IN ROUTINE GET
         BAL   REX,GET         GET TAPE CONTROL RECORD
         CLI   0(R4),C' '      IF NO CYCLE FILE, SKIP CHECK FOR
         BE    OPN7               CORRECT TAPE
         CLC   12(2,R8),=CL2'$$'  UNCYCLED TAPE CHECK
         BE    OPN7
         CLC   JF+118(6),12(R8) JUMP IF INCORRECT TAPE MOUNTED
         BNE   OPN11
OPN7     MVC   0(6,R2),12(R8)  PUT VOLSER AND DATE/TIME IN USER AREA
         MVC   6(10,R2),2(R8)
         XC    TMLR,TMLR       INITIALIZE FIELD TMLR
         B     OPN3
         SPACE 2
*USER DID NOT SPECIFY ANY DD NAMES.  DETERMINE IF TAPE OR DISK MASTERS
*ON THE BASIS OF THE DD STATEMENTS PRESENT
         SPACE 1
OPN8     MVC   DMAST+40(8),=CL8'MASTER' SET DEFAULT DDNAME FOR DISK
         MVI   JF,X'FF'        SET FLAG TO TEST IF JFCB WAS READ
         RDJFCB DMAST          TRY AND READ DISK MASTER JFCB
         CLI   JF,X'FF'        JUMP IF DISK MASTER DD PRESENT
         BNE   OPN2
*        NO DD FOR THE DISK MASTER.  ASSUME A TAPE MASTER
         LA    R4,OPN9         SET R4 TO DEFAULT DDNAMES FOR TAPE
         B     OPN4            PROCESS AS TAPE MASTER
OPN9     DC    CL16'CYCLE   MASTIN'  DEFAULT DDNAMES FOR TAPE MASTERS
         SPACE 3
*DD STATEMENT OMITTED OR ELSE INCORRECT PARAMETER SPECIFIED
OPN10    MVI   0(R3),C'1'      SET RETURN CODE
         B     RET
         SPACE 1
*MASTER FILE (OR CYCLE FILE) HAS INCORRECT FORMAT
*CONTROL ALSO COMES HERE IF WRONG TAPE MASTER IS MOUNTED
OPN11    MVI   0(R3),C'2'      SET RETURN CODE
         BAL   REX,RBF         RETURN BUFFERS
         B     RET
         SPACE 1
*MASTER FILE IS ALREADY OPEN
OPN12    MVI   0(R3),C'3'      SET RETURN CODE
         B     RET
         SPACE 1
*INSUFFICIENT CORE AVAILABLE
OPN13    MVI   0(R3),C'4'      SET RETURN CODE
         B     RET
         SPACE
*DD CARD FOR CYCLE FILE OMITTED.  IF USER DID NOT CHANGE DDNAME OF
*CYCLE FILE, ASSUME HE WISHES TO RUN WITHOUT CYCLE CONTROL.
OPN14    CLC   OPN9(8),0(R4)   JUMP IF DDNAME FOR CYCLE FILE IS DEFAULT
         BE    OPN6              VALUE
         B     OPN10           NOT EQUAL DEFAULT - TREAT AS ERROR
         SPACE 3
*SUBROUTINE OPN20.  ALLOCATE BUFFERS FOR MASTER FILE.
         SPACE 1
OPN20    MVI   BUFNO,C'1'      ASSUME SINGLE BUFFERING
         LTR   R5,R5           IF USER SPECIFIED THE NUMBER OF BUFFERS,
         BZ    OPN21              PICK UP THE NUMBER
         MVC   BUFNO,0(R5)
OPN21    LTR   R6,R6           JUMP IF THE USER SPECIFIED THE ADDRESSES
         BNZ   OPN24              OF THE BUFFERS TO BE USED
         LH    R9,BLSIZ        PICK UP THE BLOCK SIZE
         CLI   BUFNO,C'2'      DOUBLE IF 2 BUFFERS SPECIFIED
         BNE   *+6
         AR    R9,R9
         STH   R9,FREEML       SAVE LENGTH FOR FREEMAIN
         GETMAIN EC,LV=(9),A=FREEMA  GET CORE FOR BUFFERS
         LTR   R15,R15         JUMP IF INSUFFICIENT CORE
         BNZ   OPN13
         L     R1,FREEMA       STORE ADDRESS OF 1ST BUFFER
         ST    R1,CBUF
         CLI   BUFNO,C'2'      IF 2 BUFFERS WERE SPECIFIED, COMPUTE
         BNE   OPN23              ADDRESS OF 2ND BUFFER
         AH    R1,BLSIZ
OPN23    ST    R1,ABUF         SET ADDRESS OF ALT BUFFER AREA
         BR    REX             EXIT
         SPACE 1
*USER SPECIFIED THE BUFFER ADDRESSES
         SPACE 1
OPN24    MVC   CBUF+1(3),1(R6) STORE ADDRESS OF 1ST BUFFER
         CLI   BUFNO,C'2'      IF 2 BUFFERS SPECIFIED, BUMP PARAMETER
         BNE   OPN25              ADDRESS TO POINT TO NEXT ADDRESS
         LA    R6,4(R6)
OPN25    MVC   ABUF+1(3),1(R6) SET ADDRESS OF ALT BUFFER AREA
         BR    REX             EXIT
         EJECT
*SUBROUTINE MASTMOD
*LOCATE A MODULE ON THE MASTER FILE.  ARGUMENTS ARE -
*        8 BYTE MODULE NAME FIELD (IF BLANK, GET NEXT MODULE ON FILE)
*        RETURN CODE (1 EBCIDIC BYTE)
*        100 BYTE AREA CONTAINING VARIOUS MODULE PARAMETERS
*        FLAG FOR -INC PROCESSING
*        400 BYTE AREA FOR COMPLETE MODULE PARAMETERS
         SPACE 1
         SETUP MASTMOD         ESTABLISH COVER, SET UP SAVE AREAS
         SPACE 1
         BAL   REX,PARM        PICK UP USER PARAMETERS
*        CALLING ARGUMENTS ARE NOW IN REGISTERS STARTING WITH R2
         SPACE 1
         TM    GFLG,BMOP       JUMP IF MASTER FILE IS NOT OPEN
         BZ    MOD8
         MVC   INCPNT,INCA1    INIT POINTER FOR -INC SAVE AREA
         NI    GFLG,255-BMOM   RESET 'MODULE OPEN' FLAG
         TM    GFLG,BMDM       JUMP IF TAPE MASTER
         BZ    MOD20
         SPACE 1
*DISK MASTER
         SPACE 1
         BAL   REX,CDQ         DEQUE PREVIOUS MODULE (IF ANY ENQUED)
         CLI   0(R2),C' '      JUMP IF USER DID NOT SPECIFY THE NAME
         BE    MOD10              OF A SPECIFIC MODULE
         MVC   NAMENQ,0(R2)    ENQUE THIS MODULE (MUST BE DONE PRIOR
         LA    R1,NAMENQ         TO THE INDEX SEARCH)
         BAL   REX,EQM
         LR    R1,R2           LOOK UP MODULE NAME IN INDEX
         BAL   REX,DFIND
         CLI   NNT,X'00'       JUMP IF MODULE NAME NOT FOUND IN INDEX
         BE    MOD7
MOD2     MVI   MFLG,X'00'      SET MISC FLAG BITS OFF
         MVC   NBLK+1(3),NNT2  SET BLOCK NO. OF 1ST BLOCK OF MODULE
         MVC   LOC,EBT         FORCE READ OF NEW BLOCK IN ROUTINE GET
         SPACE 1
*NOW READ IN THE MODULE CONTROL RECORDS AND STORE THE MODULE
*PARAMETER INFORMATION IN THE USER AREAS IF THE USER SO SPECIFIED
         SPACE 1
MOD3     BAL   REX,SMP         READ 1ST CONTROL RCD, SET MISC PARAMS
         MVC   MSTAT,33(R8)    SAVE BYTE CONTAINING PROD2 STATUS BIT
         TM    GFLG,BMDM       IF DISK MASTER, MOVE CORRECT CARD COUNT
         BZ    *+10              FROM INDEX ENTRY TO 1ST CONTROL RECORD
         MVC   30(3,R8),NNT6
         LA    R9,5            SET LOOP CONTROL (NO. OF CONTROL RCDS)
         LTR   R4,R4           IF USER PROVIDED A 3RD ARGUMENT, MOVE
         BZ    MOD4               VARIOUS PARAMETERS FROM THE 1ST
         MVC   0(23,R4),10(R8)    CONTROL RECORD INTO HIS AREA
         MVC   23(23,R4),41(R8)
MOD4     LTR   R6,R6           IF THE USER PROVIDED A 5TH PARAMETER
         BZ    MOD4B              (AREA FOR ALL PARAMETERS), MOVE THE
         MVC   0(72,R6),2(R8)     INFORMATION FROM THIS CONTROL RCD
         LA    R6,72(R6)          INTO HIS AREA
MOD4B    BCT   R9,*+8          TEST IF ALL CONTROL RECORDS PROCESSED
         B     MOD5            YES
         BAL   REX,GET         GET NEXT CONTROL RECORD
         B     MOD4
         SPACE 1
MOD5     LTR   R4,R4           JUMP IF USER DID NOT PROVIDE A 3RD
         BZ    MOD6               ARGUMENT (100 BYTE AREA FOR PARAMS)
         SPACE 1
*FINISH THE SETUP OF THE USER'S 100 BYTE AREA FOR MODULE PARAMETERS
         SPACE 1
         MVC   46(30,R4),44(R8) MOVE MODULE DESCRIPTION
         SR    R1,R1           MOVE SEQUENCE NUMBER PARAMETERS
         IC    R1,SEQ
         LA    R1,1(R1)
         STC   R1,76(R4)
         IC    R1,SEQ+1
         LA    R1,1(R1)
         STC   R1,77(R4)
         MVC   78(4,R4),SEQ+2
         MVC   82(4,R4),40(R8) MOVE NUMBER OF ACCESSES AND UPDATES
         TM    GFLG,BMDM       JUMP IF TAPE MASTER
         BZ    MOD6
         MVC   82(2,R4),NNT3   MOVE NUMBER OF ACCESSES
         MVC   84(2,R4),NNT7   MOVE NUMBER OF UPDATES
         MVC   86(1,R4),NNT4   MOVE NUMBER OF EXTENTS
         MVC   87(1,R4),NNT5   MOVE NUMBER OF BLOCKS
         MVC   20(3,R4),NNT6   MOVE NUMBER OF CARDS
         LH    R15,NNT8        PICK UP DATE OF LAST ACCESS
         N     R15,=X'0000FFFF'   CLEAR ANY PROPIGATED SIGN BITS.
         LTR   R15,R15         JUMP IF DATE = 0
         BZ    MOD6
         BAL   REX,DATE1       CONVERT TO MM/DD/YY (R1 SET TO RESULT)
         MVC   88(2,R4),0(R1)  MOVE MMDDYY TO USER'S AREA
         MVC   90(2,R4),3(R1)
         MVC   92(2,R4),6(R1)
         SPACE 1
MOD6     MVI   INCFL,C'0'      IF USER PROVIDED AN ARGUMENT FOR -INC
         LTR   R5,R5              PROCESSING, SAVE IT FOR MASTRCD
         BZ    *+10               (USE '0' IF NO ARGUEMENT PROVIDED)
         MVC   INCFL,0(R5)
         SPACE 1
         OI    GFLG,BMOM       SET FLAG TO INDICATE MODULE IS OPEN
         SR    R0,R0           IF THIS IS A PROD2 MODULE, INSERT A
         TM    MSTAT,X'10'       SPECIAL FLAG INTO R0 FOR USE BY THE
         BZ    *+8               ROSDATA PROGRAM OF ROSCOE
         LH    R0,PRD2CON
         MVI   0(R3),C'0'      SET RETURN CODE
         B     RET             TO RETURN PATH
         SPACE 2
*COULD NOT FIND A SPECIFIC MODULE, OR NO MODULES LEFT IF SEQUENTIAL
         SPACE 1
MOD7     MVI   0(R3),C'1'      SET RETURN CODE
         B     RET             TO RETURN PATH
         SPACE 1
*MASTER FILE IS NOT OPEN
         SPACE 1
MOD8     MVI   0(R3),C'2'      SET RETURN CODE
         B     RET             TO RETURN PATH
         SPACE 2
*DISK MASTER.  USER DID NOT SPECIFY MODULE NAME
         SPACE 1
MOD10    LH    R8,SDMC         GET COUNT OF ENTRIES LEFT IN CURRENT
         SH    R8,=H'1'           INDEX BLOCK AND SUBTRACT 1
         BNM   MOD12           FALL THRU IF NO ENTRIES LEFT
MOD11    CLC   SDNB,=AL3(0)    JUMP IF NO INDEX BLOCKS LEFT
         BE    MOD15
         MVC   SDCB,SDNB       SET BLK NO. OF NEXT INDEX BLOCK
MOD12    L     R0,SDBF         READ INDEX BLOCK INTO CORE
         LA    R1,SDCB
         BAL   REX,READ
         BAL   REX,CHK         CHECK READ
         LTR   R8,R8           FALL THRU IF THIS WAS A NEW INDEX BLOCK
         BNM   MOD13
         L     R1,SDBF         SET R1 TO START OF THE INDEX BLOCK
         MVC   SDNB,9(R1)      SAVE BLK NO. OF NEXT INDEX BLOCK
         LH    R8,12(R1)       PICK UP COUNT OF ENTRIES IN BLOCK
         SH    R8,=H'1'        SUBT 1 FOR ENTRY WE'RE ABOUT TO PROCESS
         BM    MOD11           JUMP IF THIS BLOCK HAS NO ENTRIES
         LA    R1,16(R1)       BUMP R1 TO 1ST ENTRY IN THE BLOCK AND
         ST    R1,SDBP            STORE IN BLOCK POINTER
MOD13    STH   R8,SDMC         STORE ENTRY COUNT (REDUCED BY 1)
         L     R8,SDBP         GET ADDRESS OF NEXT ENTRY TO PROCESS
         MVC   NNT,0(R8)       MOVE ENTRY TO WORK AREA
         MVC   0(8,R2),NNT1    PUT MODULE NAME IN USER'S AREA
         LA    R8,22(R8)       BUMP POINTER FOR NEXT TIME THROUGH
         ST    R8,SDBP
         MVC   NAMENQ,NNT1     ENQUE MODULE NAME IN CASE DISP=SHR WAS
         LA    R1,NAMENQ         SPECIFIED (THIS IS NOT A COMPLETE
         BAL   REX,EQM            SUBSTITUTE FOR DISP=OLD)
         B     MOD2            TO COMMON PATH
         SPACE 1
*WE'VE REACHED THE END OF THE INDEX
MOD15    NI    GFLG,255-BMOP   RESET 'MASTER OPEN' FLAG
         B     MOD7
         SPACE 2
*TAPE MASTER
         SPACE 1
MOD20    CLI   0(R2),C' '      JUMP IF USER DID NOT SPECIFY A SPECIFIC
         BE    MOD23              MODULE BY NAME
         SPACE 1
*USER WANTS A SPECIFIC MODULE BY NAME FROM A TAPE MASTER
         SPACE 1
         CLC   TMLR,0(R2)      FALL THRU IF MODULE SPECIFIED IS PRIOR
         BL    MOD21              TO LAST MODULE READ
*        START SEARCHING FROM FRONT OF TAPE
         BAL   REX,CHK         CHECK ANY OUTSTANDING READS
         MVI   MFLG,X'00'      SET MISC FLAG BITS OFF
         LA    R0,=A(1)        REPOSITION TAPE AT THE START
         POINT TMAST,(0)
         MVC   LOC,EBT         FORCE READ OF NEW BLOCK IN ROUTINE GET
         BAL   REX,GET         SKIP OVER TAPE CTRL RCD AT FRONT OF TAPE
         SPACE 1
MOD21    BAL   REX,GET         SKIP TO START OF NEXT MODULE
         TM    1(R8),X'08'
         BZ    MOD21
         MVC   TMLR,2(R8)      SAVE NAME OF MODULE
         CLC   2(8,R8),0(R2)   COMPARE MODULE NAME TO NAME WE WANT
*        NOTE-HIGH MODULE NAME OF FF PREVENTS REACHING END-OF-FILE
         BL    MOD21           IF LOW, KEEP ON LOOKING
         BH    MOD7            IF HIGH, MODULE WE WANT IS NOT ON TAPE
*PATH FOR NEXT MODULE IN SEQUENCE COMES IN HERE
MOD22    OI    MFLG,BMRR       SET FLAG TO REREAD CONTROL RECORD
         B     MOD3            TO COMMON PATH
         SPACE 1
*USER WANTS NEXT MODULE IN SEQUENCE ON A TAPE MASTER
         SPACE 1
MOD23    BAL   REX,GET         SKIP TO START OF NEXT MODULE
         TM    1(R8),X'08'
         BZ    MOD23
         MVC   TMLR,2(R8)      SAVE NAME OF MODULE
         CLI   2(R8),X'FF'     JUMP IF END OF TAPE REACHED (LAST MOD
         BE    MOD7               NAME IS DUMMY HI ENTRY OF 'FF')
         MVC   0(8,R2),2(R8)   PUT MODULE NAME IN USER AREA
         B     MOD22           TO COMMON PATH
         EJECT
*SUBROUTINE MASTRCD
*RETRIEVE NEXT CARD IMAGE OF A MODULE.  ARGUMENTS ARE -
*        AREA FOR CARD IMAGE, SEQUENCE NUMBER, AND DATE
*        RETURN CODE (1 EBCIDIC BYTE)
*        -INC FLAG
         SPACE 1
         SETUP MASTRCD         ESTABLISH COVER, SET UP SAVE AREAS
         SPACE 1
         BAL   REX,PARM        PICK UP USER PARAMETERS
*        CALLING ARGUMENTS ARE NOW IN REGISTERS STARTING WITH R2
         SPACE 1
         TM    GFLG,BMOM       JUMP IF MODULE NOT CURRENTLY 'OPEN'
         BZ    RCD4
RCD1     BAL   REX,GET         PUT ADDRESS OF NEXT RECORD IN R8
         TM    1(R8),X'04'     JUMP IF END-OF-MODULE RECORD
         BO    RCD5
         TM    1(R8),X'01'     JUMP IF NOT DATA RECORD (COULD BE CTRL
         BZ    RCD1               RCD FROM 'INCLUDED' MODULE)
         BAL   REX,UNPK        CREATE CARD IMAGE IN USER'S AREA
         BAL   REX,DATE        PUT DATE FIELD (IF ANY) INTO BYTES 91-98
         MVC   90(8,R2),0(R1)     OF THE USER'S AREA
         CLI   INCFL,C'0'      FALL THRU IF USER WANTS -INC EXPANSION
         BE    RCD2
         CLC   0(5,R2),=C'-INC '  JUMP IF -INC CARD
         BE    RCD8
RCD2     LTR   R4,R4           JUMP IF USER FAILED TO PROVIDE AN
         BZ    RCD3               ADDRESS FOR THE -INC FLAG
         MVI   0(R4),C'1'      SET -INC FLAG TO '1' IF CURRENTLY
         CLC   INCPNT,INCA1      EXPANDING -IN TO '0' IF NOT
         BNE   RCD3
RCD2B    MVI   0(R4),C'0'
RCD3     MVI   0(R3),C'0'      SET RETURN CODE
         B     RET             TO RETURN PATH
         SPACE 2
*MODULE IS NOT CURRENTLY 'OPEN'
         SPACE 1
RCD4     MVI   0(R3),C'2'      SET RETURN CODE
         B     RET             TO RETURN PATH
         SPACE 1
*END-OF-MODULE RECORD FOUND
         SPACE 1
RCD5     CLC   INCPNT,INCA1    JUMP IF CURRENTLY EXPANDING -INC CARD
         BNE   RCD6
         NI    GFLG,255-BMOM   RESET 'MODULE OPEN' FLAG
         TM    GFLG,BMDM       JUMP IF TAPE MASTER
         BZ    RCD5B
         LA    R1,NAMENQ       DEQUE THE MODULE NAME
         BAL   REX,DQM
RCD5B    MVI   0(R3),C'1'      SET RETURN CODE
         B     RET             TO RETURN PATH
         SPACE 1
*END OF AN INCLUDED MODULE
         SPACE 1
RCD6     BAL   R7,RCD15        RESET I/O SO NEXT RCD IS ONE AFTER -INC
         B     RCD1            CONTINUE PROCESSING OF ORIGINAL MODULE
         SPACE 2
*THIS IS AN -INC CARD
         SPACE 1
RCD8     TM    GFLG,BMDM       JUMP IF TAPE MASTER
         BZ    RCD2
         CLC   INCPNT,INCA2    JUMP IF ALREADY AT MAX LEVEL OF NESTING
         BE    RCD11
*        EXTRACT NAME OF MODULE TO BE INCLUDED
         LA    R9,5(R2)        SET R9 TO 6TH BYTE OF -INC CARD
         LA    R14,40          SET LOOP CONTROL TO PREVENT RUNAWAY
RCD9     CLI   0(R9),C' '      LOCATE 1ST NON-BLANK AFTER -INC
         BNE   RCD10
         LA    R9,1(R9)
         BCT   R14,RCD9
         B     RCD11           ERROR CONDITION
RCD10    LR    R1,R9             SAVE 1ST CHARACTER ADDR
         LA    R14,8             ALLOW 8 CHARACTER NAME
RCD10L   LA    R9,1(R9)          BUMP TO NEXT POSITION
         CLI   0(R9),C' '
         BE    RCD10M            BRANCH IF LAST CHARACTER
         BCT   R14,RCD10L
         B     RCD11             ERROR IF NAME EXCEEDS 8 CHARACTERS
RCD10M   SR    R9,R1             GET LENGTH OF NAME
         BCTR  R9,0              DECREMENT BY 1
         MVC   INCNAME,=CL8' '     CLEAR INCNAME
         EX    R9,MOVE1          EXEC VARIABLE MOVE
         L     R1,INCPNT         GET POINTER FOR -INC SAVE AREA
         MVC   0(MPL,R1),MP    SAVE CURRENT MODULE PARAMETERS
         LA    R1,MPL(R1)      ADVANCE POINTER AND STORE
         ST    R1,INCPNT
         LA    R1,INCSAV         SET UP SCAN OF INC NAMES
ENQCHK   CLC   0(8,R1),INCNAME
         BNE   ENQADV            BR TO NEXT NAME
         BAL   R7,RCD15A         ERROR EQUAL NAME IN LIST
         B     RCD11             RESET POINTERS, DO NOT DEQ
*                                GIVE ERROR RETURN CODE.
ENQADV   DS    0H
         LA    R1,MPL(R1)        BUMP TO NEXT NAME
         C     R1,INCPNT
         BL    ENQCHK
         LA    R1,INCNAME        NAME NOT PREVIOUSLY ENQUED.
         BAL   REX,EQM
         LA    R1,INCNAME
         MVC   NAMENQ,INCNAME    SET R1 TO MODULE NAME AND ADV NAME
*                                IN LIST
         BAL   REX,DFIND       FIND MODULE ON MASTER
         CLI   NNT,X'00'       JUMP IF MODULE NOT FOUND
         BE    RCD12
         MVI   MFLG,X'00'      SET MISC FLAG BITS OFF
         MVC   NBLK+1(3),NNT2  SET BLOCK NO. OF 1ST BLOCK OF MODULE
         MVC   LOC,EBT         FORCE READ OF NEW BLOCK IN ROUTINE GET
         BAL   REX,SMP         READ 1ST CTRL RCD, SET MISC PARAMETERS
         CLI   INCFL,C'1'      JUMP IF USER DOESN'T WANT -INC CARD
         BE    RCD1              PASSED ON (GO START EXPANSION INSTEAD)
*        -INC CARD IS TO BE PASSED ON TO THE USER
         LTR   R4,R4           JUMP IF USER DID NOT PROVIDE AN ADDRESS
         BZ    RCD3               OF THE -INC FLAG
         LA    R1,INCSAV+MPL   IF THIS IS AN OUTER -INC (I.E. PART
         C     R1,INCPNT         OF THE OPRIGINAL MODULE), SET -INC
         BE    RCD2B             FLAG TO 0
         MVI   0(R4),C'1'      SET -INC FLAG TO 1
         B     RCD3
         SPACE 1
MOVE1    MVC   INCNAME(0),0(R1)  INITIALIZE INCNAME
*ERROR CONDITION FOUND ON -INC
         SPACE 1
RCD11    LTR   R4,R4           JUMP IF USER FAILED TO PROVIDE THE
         BZ    RCD3               ADDRESS OF AN -INC FLAG
         MVI   0(R4),C'2'      SET -INC FLAG PARAMETER TO '2'
         B     RCD3            PASS -INC CARD ON TO USER
         SPACE 1
*COULD NOT FIND THE MODULE NAMED ON AN -INC CARD
         SPACE 1
RCD12    BAL   R7,RCD15        RESET I/O SO NEXT RCD IS ONE AFTER -INC
         B     RCD11
         SPACE 2
*SUBROUTINE RCD15.  RESET THE I/O LOGIC SO NEXT RECORD RETRIEVED IS
*THE ONE THAT FOLLOWS THE LATEST -INC CARD
*THIS ROUTINE ALSO DEQUES THE NAME OF THE INCLUDED MODULE
***** NOTE THAT R7 CONTAINS THE RETURN LINKAGE RATHER THAN REX *****
         SPACE 1
RCD15    LA    R1,NAMENQ       DEQUE THE MODULE NAMED IN LATEST -INC
         BAL   REX,DQM
RCD15A   DS    0H
         L     R1,INCPNT       RESTORE PARAMETERS SO WE RESUME
         SH    R1,=Y(MPL)        PROCESSING THE MODULE THAT CONTAINED
         MVC   MP(MPL),0(R1)     THE LATEST -INC CARD
         ST    R1,INCPNT       STORE UPDATED SAVE AREA POINTER
         MVI   NAMENQ-MP(R1),C' ' CLEAR NAME FIELD IN TABLE ENTRY
*        ABOVE NECESSARY TO AVOID EXTRA DEQUE BY ROUTINE CDQ
         SPACE
*        CBLK NOW HAS NO. OF BLOCK CONTAINING THE -INC CARD AND CBUF
*        HAS ADDRESS OF THE BUFFER INTO WHICH THAT BLOCK HAD BEEN READ
         L     R0,CBUF         REREAD BLOCK WITH -INC CARD INTO SAME
         LA    R1,CBLK+1          BUFFER IT OCCUPIED EARLIER
         BAL   REX,READ
         BAL   REX,CHK         CHECK THE READ
         BR    R7              EXIT
         EJECT
*SUBROUTINE MASTHST
*OBTAIN NEXT HISTORY RECORD OF A MODULE.  ARGUMENTS ARE -
*        ADDRESS OF AREA FOR CARD AND DATE
*        RETURN CODE (1 EBCIDIC BYTE)
         SPACE 1
         SETUP MASTHST         ESTABLISH COVER, SET UP SAVE AREAS
         SPACE 1
         BAL   REX,PARM        PICK UP USER PARAMETERS
*        CALLING ARGUMENTS ARE NOW IN REGISTERS STARTING WITH R2
         SPACE 1
         TM    GFLG,BMOM       JUMP IF A MODULE IS NOT CURRENTLY 'OPEN'
         BZ    HST6
HST2     BAL   REX,GET         GET NEXT MASTER FILE RECORD
         TM    1(R8),X'01'     JUMP IF DATA RECORD
         BO    HST4
         TM    1(R8),X'02'     FALL THRU IF HISTORY RECORD
         BZ    HST2
         SPACE 1
*THIS IS A HISTORY RECORD
         SPACE 1
         BAL   REX,UNPK        CREATE CARD IMAGE IN USER'S AREA
         BAL   REX,DATE        PUT DATE IN USER'S AREA
         MVC   80(8,R2),0(R1)
         MVI   0(R3),C'0'      SET RETURN CODE
         B     RET             TO RETURN PATH
         SPACE 1
*THIS IS A DATA RECORD.  NO HISTORY RECORDS LEFT
HST4     MVI   0(R3),C'1'
         OI    MFLG,BMRR       SET FLAG TO REPROCESS THE RECORD
         B     RET             TO RETURN PATH
         SPACE 1
*NOT CURRENTLY WITHIN A MODULE
HST6     MVI   0(R3),C'2'      SET RETURN CODE
         B     RET             TO RETURN PATH
         EJECT
*SUBROUTINE MASTCLS
*CLOSE THE MASTER FILE.  NO PARAMETERS NEEDED.
         SPACE 1
         SETUP MASTCLS         ESTABLISH COVER, SET UP SAVE AREAS
         SPACE 1
         LA    R3,GW           SET R3 TO WORK AREA IN CASE GO TO 'HELP'
*        R3 NORMALLY POINTS TO RETURN CODE, WHICH MASTCLS DOESN'T HAVE
         BAL   REX,CHK         CHECK ANY OUTSTANDING READS LEFT OVER
         BAL   REX,CDQ         DEQUE ANY MODULES CURRENTLY ENQUED
         BAL   REX,RBF         RETURN BUFFER AREAS TO THE SYSTEM
         LA    R5,DMAST        GET DCB ADDRESS FOR TAPE OR DISK MASTER
         TM    GFLG,BMDM
         BO    *+8
         LA    R5,TMAST
         CLOSE ((R5))          CLOSE THE MASTER FILE
         TM    GFLG,BMDM       IF THIS IS A DISK MASTER, DEQUE IT
         BZ    CLS2
         DEQ   (QNAME,DSN,44,SYSTEM)  DEQUE THE MASTER FILE
CLS2     NI    GFLG,255-BMOP   RESET THE OPEN FLAG
         LA    R3,EBZERO       SET R3 TO POINT TO 0 (FOR PATH 'RET')
         B     RET             TO RETURN PATH
         SPACE 5
         LTORG
         EJECT
*SUBROUTINE SAVE
*THIS ROUTINE SETS UP SAVE AREA LINKAGE AND ALSO SETS 2ND COVER REG
***** THIS ROUTINE MAY NOT DESTROY R1 (PARM FIELD ADDRESS)
***** THIS ROUTINE MUST BE LOCATED WITHIN 4096 BYTES OF LABEL 'COVER'
         SPACE 1
SAVE     DS    0H
         LA    RBAS2,2048(RBAS1)  SET 2ND COVER REGISTER
         LA    RBAS2,2048(RBAS2)
         ST    13,REGSAV+4     SET UP SAVE AREA LINKAGE
         LR    R14,13
         LA    13,REGSAV
         ST    13,8(R14)
         BR    REX             EXIT
         SPACE 5
*SUBROUTINE GET
*LOCATE NEXT RECORD OF A BLOCK, PLACE ITS ADDRESS IN R8
         SPACE 1
GET      DS    0H
         ST    REX,GET16       SAVE LINKAGE REGISTER
         TM    MFLG,BMRR       JUMP IF REREAD FLAG IS ON
         BO    GET10