         TITLE 'TSO DATA SET SPACE RELEASE COMMAND'
***********************************************************************
*                                                                     *
*                                                                     *
* TITLE -      TSO DATA SET SPACE RELEASE COMMAND                     *
*                                                                     *
* FUNCTION -   PROVIDE THE ABILITY FOR A TSO USER TO                  *
*              RELEASE UNUSED SPACE IN A DATA SET, OR                 *
*              A SERIES OF DATA SETS.                                 *
*                                                                     *
*                                                                     *
* OPERATION -  ACCEPT FROM THE TSO USER A COMMAND                     *
*              STRING CONTAINING THE NAME(S) OF THE                   *
*              DATA SETS TO BE PROCESSED. OPEN EACH                   *
*              DATA SET WITH DISPOSITION=MOD, THEN                    *
*              CLOSE THE DATA SET.                                    *
*                                                                     *
*                                                                     *
* INPUT -      STANDARD COMMAND PROCESSOR PARAMETER LIST              *
*              POINTED TO BY REGISTER 1                               *
*                                                                     *
*                                                                     *
* OUTPUT -     UNUSED SPACE RELEASED IN THE REQUESTED                 *
*              DATA SETS.                                             *
*                                                                     *
*                                                                     *
* ATTRIBUTES - REENTRANT, REUSEABLE, REFRESHABLE.                     *
*                                                                     *
* LAST UPDATE -  5/30/75                                              *
*                                                                     *
***********************************************************************
         EJECT
         MACRO
&NAME    CLEAR &FIELD
         LCLC  &L
&L       SETC  'L'''
&NAME    MVI   &FIELD,C' '
         MVC   &FIELD+1(&L&FIELD-1),&FIELD
         MEND
         SPACE
         MACRO
&NAME    ENTER &TYPE
         AIF   ('&TYPE' NE '').A1
&NAME    CSECT
         SAVE  (14,12),,*
         LR    BASEREG1,15
         LA    BASEREG2,4095(BASEREG1)
         LA    BASEREG2,1(BASEREG2)
         USING &NAME,BASEREG1,BASEREG2
         B     IHB&SYSNDX
         DC    C'COPYRIGHT 1972 BY FIREMAN''S FUND INSURANCE'
         DC    C'COPYRIGHT 1973 BY SECURITY PACIFIC NATIONAL BANK'
IHB&SYSNDX DS  0H
         SPACE 2
         MEXIT
.A1      AIF   ('&TYPE' NE 'VALCHECK').A2
&NAME    SAVE  (14,12)
         L     WORKREG,4(1)   WORK AREA ADDRESS
         LM    BASEREG1,BASEREG2,BASES RESTORE BASE REGISTERS
         L     R9,0(1)       PDE ADDRESS
         LA    R15,VALSAVE
         ST    R13,4(R15)
         ST    R15,8(R13)
         LR    R13,R15
         SPACE 3
         MEXIT
.A2      ANOP
         MNOTE 8,'INVALID TYPE ''&TYPE'''
         MEND
         SPACE
         MACRO
&NAME    EXIT  &LV=
&NAME    DS    0H
         AIF   ('&LV' EQ '').A1
         LR    R2,R13         ADDR OF THIS SAVE AREA
.A1      L     R13,4(R13)
         STM   R15,R1,16(R13) RETURN REGS 15, 0, 1
         AIF   ('&LV' EQ '').A2 NOT DYNAMIC CORE
         FREEMAIN R,LV=&LV,A=(R2)
.A2      SPACE
         RETURN (14,12),T
         MEND
         SPACE
         MACRO
&NAME    MSG   &TEXT
         LCLA  &A
&A       SETA  K'&TEXT-2+4
&NAME    DC    H'&A',H'0',C&TEXT
         MEND
         EJECT
R0       EQU   0
R1       EQU   1
R2       EQU   2
R3       EQU   3
R4       EQU   4
R5       EQU   5
R6       EQU   6
R7       EQU   7
R8       EQU   8
R9       EQU   9
WORKREG  EQU   10
BASEREG1 EQU   11
BASEREG2 EQU   12
R13      EQU   13
R14      EQU   14
R15      EQU   15
         SPACE 5
RELEASE  ENTER
         LR    R2,R1          SAVE ADDR OF CPPL
         SPACE
         L     R3,CORESIZE
         GETMAIN R,LV=(R3)
         SPACE 2
         LR    WORKREG,R1     ADDR OF WORK AREA
         USING WORKAREA,WORKREG
         EJECT
*
*        CLEAR WORK AREA
*
         SPACE 2
         LA    R14,0(R3)      LENGTH OF AREA
         BCTR  R14,0          EXECUTED LENGTH
         LA    R15,255        LOOP FACTOR
LOOP01   CR    R14,R15        LAST PASS?
         BNH   LOOP00         YES
CLEAR1   XC    0(0,R1),0(R1)
         EX    R15,CLEAR1
         LA    R1,256(R1)
         SR    R14,R15
         BCT   R14,LOOP01     IF MORE TO CLEAR
         SPACE
LOOP00   EX    R14,CLEAR1     CLEAR LAST AREA
         SPACE 2
         STM   BASEREG1,BASEREG2,BASES SAVE BASE ADDRESSES
         SPACE 2
         LA    R15,MAINSAVE
         ST    R15,8(R13)
         ST    R13,4(R15)
         LR    R13,R15
         EJECT
*
*        LOAD TSO SERVICE ROUTINES
*
         SPACE 3
         USING CPPL,R2        BASE FOR COMMAND PARM LIST
         MVC   ADDRUPT,CPPLUPT ADDR OF USER PROFILE TABLE
         MVC   ADDRPSCB,CPPLPSCB
         MVC   ADDRECT,CPPLECT ADDR OF ENVIROMENT TABLE
         MVC   ADDRCBUF,CPPLCBUF
         DROP  R2
         SPACE 3
         LOAD  EPLOC=IKJDAIR  DYNAMIC ALLOCATION INTERFACE
         ST    R0,ADDRDAIR
         SPACE 3
         LOAD  EPLOC=IKJPUTL  PUTLINE SERVICE ROUTINE
         ST    R0,ADDRPUTL
         SPACE 2
         LOAD  EPLOC=IKJEHCIR
         ST    R0,ADDRCIR
         EJECT
*
*        BUILD PARSE PARAMETER LIST AND INVOKE
*        IKJPARS TO ANALYZE COMMAND OPERANDS
*
         SPACE 3
GOPARSE  DS    0H
         LA    R1,PARSELST    AREA FOR PARSE PARAMETERS
         USING PPL,R1         BASE FOR PARSE PARAMETER LIST
         SPACE 2
         MVC   PPLUPT,ADDRUPT PASS UPT ADDRESS
         MVC   PPLECT,ADDRECT AND ECT ADDRESS
         MVC   PPLCBUF,ADDRCBUF AND COMMAND BUFFER ADDR
         SPACE
         ST    WORKREG,PPLUWA ALSO WORK AREA ADDR FOR VALIDITY EXITS
         SPACE
         LA    R0,ATTNECB     ECB FOR ATTN INTERRUPTS
         MVI   ATTNECB,0      CLEAR ECB
         ST    R0,PPLECB      PASSE TO PARSE
         SPACE
         LA    R0,ADDRANSR    PASS ADDR OF WORD WHERE PARSE
         ST    R0,PPLANS      RETURNS PDL ADDRESS
         SPACE
         MVC   PPLPCL,ADDRPCL STORE PCL ADDRESS
         SPACE 3
         LINK  EPLOC=IKJPARS  INVOKE PARSE
         DROP  R1
         SPACE 2
         LA    R14,MAXPARSE   RETURN CODE LIMIT
         SPACE
         CR    R15,R14        VERIFY RETURN CODE WITHIN LIMITS
         BH    PARSEBAD       NO, ERROR
         SPACE
         L     R14,ADDREXIT   PARSE EXIT PROCESSOR
         B     *+4(R15)       PROCESS RETURN CODE
         SPACE
PARSERET B     PARSEOK         0- SUCESSFUL
         B     ERROROUT        4- PARSE UNABLE TO PROMPT
         B     ERROROUT        8- USER ENTERED ATTENTION
         B     PARSEBAD       12- INVALID PARAMETERS
         B     PARSEBAD       16- PARSE INTERNAL FAILURE
         B     ERROROUT       20 - VALIDITY CHECK ERROR
MAXPARSE EQU   *-PARSERET
         SPACE 5
PARSEBAD DS    0H
         MVC   MSGTEXT2+4(L'MSGPARSE),MSGPARSE
         LA    R1,MSGTEXT2+4+L'MSGPARSE
         SPACE
         CVD   R15,DOUBLE
         OI    DOUBLE+7,X'0F'
         UNPK  0(2,R1),DOUBLE
         SPACE
         LA    R0,MSGTEXT2-2
         SR    R1,R0
         SLL   R1,16
         ST    R1,MSGTEXT2
         SPACE 2
         LA    R0,MSGTEXT2    PUT OUT 'COMMAND ERROR' MSG
         LA    R1,MSGCMDER
         SPACE
         BAL   R14,ERRORMSG
         SPACE 3
EXIT12   DS    0H
ERROROUT LA    R15,12         ERROR CODE 12 - COMMAND FAILED
         B     RETURN
         SPACE
EXIT0    SR    R15,R15
         SPACE 3
RETURN   LTR   R2,R15         NORMAL EXIT?
         BZ    RETURN1        YES
         SPACE 2
         LA    R1,PARMLIST    AREA FOR STACK PARM LIST
         USING IOPL,R1
         SPACE
         MVC   IOPLUPT,ADDRUPT
         MVC   IOPLECT,ADDRECT
         LA    R0,ATTNECB
         MVI   ATTNECB,0
         ST    R0,IOPLECB
         SPACE 2
         STACK PARM=PARMLIST+16,DELETE=ALL,MF=(E,(1))
         SPACE 3
         TCLEARQ INPUT        CLEAR INPUT BUFFERS
         SPACE 3
RETURN1  DS    0H
         BAL   R14,FREEPDL    FREE THE PARSE STROAGE
         SPACE
         DELETE EPLOC=IKJDAIR
         SPACE
         DELETE EPLOC=IKJPUTL
         SPACE
         DELETE EPLOC=IKJEHCIR
         SPACE 3
         LR    R15,R2         RESTORE RETURN CODE
         SPACE
         L     R0,CORESIZE
         SPACE
         EXIT  LV=(0)
         EJECT
PARSEOK  DS    0H
         L     R9,ADDRANSR    ADDR OF PARSE DESCRIPTOR LIST
         USING PDL,R9         RETURNED BY PARSE
         SPACE
         LA    R2,OPTDSN      ADDR OF DSNAME PDL
         SPACE 3
NEXTPDL  DS    0H
         NI    FLAGS,X'FF'-FMATCH-FCVOL CLEAR DATA SET FOUND FLAGS
         SPACE 2
         CLEAR DSNAME
         SPACE
         L     R15,0(R2)      MOVE DSNAME TO AREA
         LH    R14,4(R2)
         STH   R14,DSNLEN
         BCTR  R14,0
         MVC   DSNAME(0),0(R15)
         EX    R14,*-6
         SPACE
         NI    FLAGS,X'FF'-FQUOTED
         TM    6(R2),X'40'    DATA SET NAME QUOTED?
         BZ    NOTQUOTE       NO
         OI    FLAGS,FQUOTED
NOTQUOTE DS    0H
         SPACE
         CLEAR PASSWORD
         TM    22(R2),X'80'   PASSWORD SUPPLIED?
         BZ    NOPASS         NO
         SPACE
         L     R15,16(R2)
         LH    R14,20(R2)
         BCTR  R14,0
         MVC   PASSWORD(0),0(R15)
         EX    R14,*-6
NOPASS   DS    0H
         SPACE 2
         BAL   R14,INDXSCAN   DETERMINE IF PATTERN INDEX SPECIFIED
         B     NOPATTRN       00-SYNTAX ERROR
         B     NOPATTRN       04-NOT PATTERN FORMAT
*                             08-DSN IS PATTERN
         EJECT
*
         SPACE 2
         OI    FLAGS,FQUOTED  INDICATE DSN HAS USERID
         SPACE
         CLEAR PATTERN        CLEAR PATTERN AREA
         SPACE 2
*
*        PROCESS REQUEST BY INDEX LEVEL(S)
*
         SPACE 2
         SR    R5,R5          ZERO CIR BLOCK ADDR
         SR    R3,R3          ZERO INDEX LEVEL COUNTER
         LA    R4,PATTERN-1
         SPACE 2
         BAL   R14,PUSHCIR    GET ANOTHER CIR BLOCK
         USING CIRBLOCK,R5
         SPACE 2
NEXTLVL  DS    0H
         NI    CIRFLAGS,X'FF'-FLINDEX
         LA    R0,1(R3)       JUMP INDEX COUNTER
         CH    R0,INDEXCNT    CHECK FOR END OF SCAN
         BH    FINDDS         YES, END OF THIS LEVEL
         BL    NOTLAST
         OI    CIRFLAGS,FLINDEX  INDICATE LAST INDEX LEVEL
NOTLAST  DS    0H
         SPACE
         LR    R14,R3
         LA    R15,10
         LR    R3,R0
         MR    R14,R14       OFFSET OF INDEX NAME
         LA    R15,INDXLIST(R15)
         LH    R14,0(R15)
         LTR   R14,R14        PATTERN LEVEL?
         BZ    ANYINDEX       YES
         SPACE
         LA    R0,1(R4,R14)   END OF DSNAME
         LA    R1,PATTERN+L'PATTERN
         CR    R0,R1
         BH    INDXERR
         SPACE
         BCTR  R14,0
         MVI   0(R4),C'.'
         MVC   1(,R4),2(R15)
         EX    R14,*-6
         LA    R4,2(R4,R14)   JUMP DSNAME POINTER
         TM    CIRFLAGS,FLINDEX
         BO    FINDDS
         B     NEXTLVL
         SPACE
ANYINDEX DS    0H
         BAL   R14,PUSHCIR    NEXT WORK BLOCK
         SPACE
         CLEAR DSNAME
         SPACE
         LR    R15,R4
         LA    R0,PATTERN
         SR    R15,R0
         STH   R15,DSNLEN
         SPACE
         BCTR  R15,0
         MVC   DSNAME(0),PATTERN
         EX    R15,*-6
         SPACE 2
SCANBLK  DS    0H
         TM    CIRFLAGS,FLINDEX  AT END OF NAME?
         BO    ENDLEVEL       YES, LOCATE BY DSNAME
         LA    R0,#INDEX      LOCATE BY INDEX
#INDEX   EQU   X'02'
         B     SETUPCIR
         SPACE
ENDLEVEL DS    0H
         LA    R0,#DATASET    LOCATE BY DATA SET
#DATASET EQU   X'01'
         SPACE
SETUPCIR LA    R15,CIRDATA
         ST    R15,PTRENTRY
         BAL   R14,CALLCIR    LOCATE CIR INFORMATION
         LTR   R15,R15        SUCCESSFUL?
         BNZ   LASTINDX
         SPACE 2
NXTINDEX DS    0H
         L     R1,PTRENTRY
         TM    CIRFLAGS,FLINDEX
         LA    R15,ID#INDEX
         BZ    *+8
         LA    R15,ID#DSN
         SPACE
         CLI   0(R1),0
         EX    R15,*-4
ID#INDEX EQU   X'00'
ID#DSN   EQU   X'07'
         BNE   NXTENTRY       NO, GET NEXT ENTRY
         SPACE 2
         LA    R14,1(R1)
         LA    R1,8(R1)       SCAN FOR END OF INDEX
         CLI   0(R1),C' '
         BNE   *+8
         BCT   R1,*-8
         SPACE
         SR    R1,R14         LENGTH OF INDEX
         BM    INDXERR
         SPACE
         LA    R0,2(R4,R1)    END OF NAME
         LA    R15,PATTERN+L'PATTERN
         CR    R0,R15
         BH    INDXERR
         SPACE
         MVC   1(,R4),0(R14)
         EX    R1,*-6
         SPACE
         MVI   0(R4),C'.'
         LA    R4,2(R1,R4)
         SPACE
         TM    CIRFLAGS,FLINDEX
         BO    RLSETHIS
         SPACE 2
         B     NEXTLVL        SCAN NEXT LEVEL
         SPACE 3
INDXERR  DS    0H
NXTENTRY DS    0H
         L     R1,PTRENTRY
         LH    R3,CNTINDEX
         L     R4,PTRINDEX
         CLI   0(R1),X'FF'    END OF CURRENT BLOCK?
         BE    ENDBLOCK       YES
         SPACE
         CLI   0(R1),X'00'    INDEX ENTRY
         LA    R0,12
         BE    UPENTRY
         CLI   0(R1),X'07'    DSNAME ENTRY?
         LA    R0,9
         BE    UPENTRY
         CLI   0(R1),X'02'
         LA    R0,16
         BE    UPENTRY
         SPACE 3
CIRERROR EX    0,*
         SPACE 2
UPENTRY  DS    0H
         AR    R1,R0
         ST    R1,PTRENTRY    SAVE NEW ENTRY POINTER
         SPACE
         B     NXTINDEX
         SPACE 2
ENDBLOCK DS    0H
         OC    1(3,R1),1(R1)  END OF CHAIN?
         BZ    LASTINDX       YES
         SPACE
         MVC   TTR,1(R1)      NO, TTR OF NEXT BLOCK
         MVC   CVOL,4(R1)     ALSO CVOL NAME
         OI    FLAGS,FTTR+FCVOL INDICATE LOCATE BY TTR
         SPACE
         B     SCANBLK        SCAN NEW BLOCK
         SPACE 3
LASTINDX DS    0H
         BAL   R14,POPCIR     POP BACK ONE BLOCK
         B     ENDCHAIN       IF AT END OF CHAIN
DOWNINDX DS    0H
         B     NXTENTRY
         SPACE 3
RLSETHIS DS    0H
         LR    R15,R4
         LA    R1,PATTERN
         SR    R15,R1
         SPACE 2
         CLEAR DSNAME
         SPACE
         STH   R15,DSNLEN
         BCTR  R15,0
         MVC   DSNAME(0),PATTERN
         EX    R15,*-6
         SPACE 2
         BAL   R14,RLSEDS     RELEASE SPACE IN THIS DATA SET
         SPACE
         B     NXTENTRY
         SPACE 2
FINDDS   DS    0H
         LR    R15,R4
         LA    R0,PATTERN
         SR    R15,R0
         STH   R15,DSNLEN
         SPACE
         CLEAR DSNAME
         SPACE
         BCTR  R15,0
         MVC   DSNAME(0),PATTERN
         EX    R15,*-6
         SPACE 2
         NI    CIRFLAGS,X'FF'-FLINDEX
         LA    R0,#VOLUMES    LOCATE BY VOLUME
#VOLUMES EQU   X'04'
         LA    R15,BUFFER
         BAL   R14,CALLCIR
         SPACE
         LTR   R15,R15
         BNZ   NXTENTRY
         B     RLSETHIS
         EJECT
*
*        PUSH DOWN STACK FOR NEW INDEX LEVEL
*
         SPACE 2
PUSHCIR  DS    0H
         ST    R14,R14SAVE
         SPACE
         L     R1,BLOCKPTR    FREE BLOCK?
         LTR   R1,R1          YES, USE IT
         BNZ   PUSHCIR1
         SPACE
         GETMAIN R,LV=SIZECIR
         SPACE
         XC    0(LENCIR,R1),0(R1)
         SPACE 2
PUSHCIR1 DS    0H
         LR    R14,R5         SAVE ADDR OF LAST CIR BLOCK
         LR    R5,R1          ADDRESS OF NEW CIR BLOCK
         L     R15,CIRCHAIN
         ST    R15,BLOCKPTR
         XC    CIRBLOCK(LENCIR),CIRBLOCK
         ST    R14,CIRCHAIN   SAVE POINTER TO PREVIOUS BLOCK
         SPACE
         ST    R4,PTRINDEX    SAVE CURRENT INDEX LEVEL ADDRESS
         STH   R3,CNTINDEX    SAVE INDEX LEVEL COUNTER
         MVC   CIRFLAGS,CIRFLAGS-CIRBLOCK(R14) SAVE PREVIOUS FLAGS
         SPACE
         L     R14,R14SAVE
         BR    R14
         EJECT
*
*        POP THE STACK UP ONE LEVEL
*
         SPACE 2
POPCIR   DS    0H
         L     R0,CIRCHAIN    PREVIOUS CIR POINTER
         MVC   CIRCHAIN,BLOCKPTR
         ST    R5,BLOCKPTR
         SPACE 2
         LR    R5,R0
         SPACE
         NI    CIRFLAGS,X'FF'-FLINDEX
         L     R1,PTRENTRY    RESTORE ENTRY POINTER
         L     R4,PTRINDEX    RESTORE INDEX POINTER
         LH    R3,CNTINDEX    RESTORE INDEX COUNTER
         OC    CIRCHAIN,CIRCHAIN END OF STACK?
         BCR   8,R14          YES, EXIT
         SPACE 2
         B     4(,R14)
         EJECT
*
*        CATALOG INFORMATION ROUTINE INTERFACE SUBROUTINE
*
         SPACE 2
CALLCIR  DS    0H
         ST    R14,R14SAVE
         SPACE
         LA    R1,CIRPARMS
         USING CIRPARM,R1
         XC    0(LCIRPARM,R1),0(R1)
         SPACE
         STC   R0,CIROPT      SET FUNCTION CODE
         SPACE
         ST    R15,CIRWA
         LA    R0,VALSAVE     SECONDARY SAVE AREA
         ST    R0,CIRSAVE
         SPACE
         TM    FLAGS,FTTR     READ BY TTR?
         LA    R0,DSNAME      FOR SEARCH BY NAME
         ST    R0,CIRSRCH
         BZ    CALLCIR1
         XI    FLAGS,FTTR
         LA    R0,TTR
         ST    R0,CIRSRCH
         MVI   CIRSRCH,X'80'
CALLCIR1 DS    0H
         SPACE 2
         TM    FLAGS,FCVOL    ALTERNATE CVOL?
         BZ    CALLCIR2
         LA    R0,CVOL        CVOL ADDRESS
         ST    R0,CIRCVOL     SET CVOL ADDRESS
CALLCIR2 DS    0H
         SPACE 2
         L     R15,ADDRCIR    ADDRESS OF IKJEHCIR
         BALR  R14,R15
         SPACE 2
         L     R14,R14SAVE
         BR    R14            EXIT
         EJECT
*
*        PATTERN INDEX/DSNAME SCAN SUBROUTINE
*
         SPACE 2
INDXSCAN DS    0H
         STM   14,12,12(13)
         SPACE
         SR    R3,R3
         TM    FLAGS,FQUOTED SPECIAL DSNAME?
         BO    SCANX          YES, FIRST LEVEL IS NOT USERID
         LA    R3,1           INDICATE 1 LEVEL PROCESSED
         BAL   R14,GETUID     SET USERID AS FIRST LEVEL
SCANX    DS    0H
         SPACE 2
         LA    R0,MAXINDEX
         LA    R1,DSNAME
         LH    R15,DSNLEN
         AR    R15,R1
         BCTR  R15,0
         LA    R14,1
         NI    FLAGS,X'FF'-FPATTERN
         SPACE
SCAN0    DS    0H
         LR    R2,R1          SAVE START OF INDEX AREA
SCAN1    DS    0H
         CLI   0(R1),C'*'     SPECIAL INDEX?
         BE    SCAN2          YES
         CLI   0(R1),C'.'     INDEX SEPERATOR?
         BE    SCAN3          YES
         BXLE  R1,R14,SCAN1   GET NEXT CHARACTER
         SPACE
SCAN3    DS    0H
         LR    R14,R1
         SR    R14,R2
         SPACE
SCAN4    DS    0H
         LA    R3,1(R3)
         CR    R3,R0
         BH    SCAN0A
         LA    R4,10
         LR    R5,R3
         BCTR  R5,0
         MR    R4,R4
         LA    R5,INDXLIST(R5)
         STH   R14,0(R5)
         LTR   R14,R14
         BZ    SCAN5
         BCTR  R14,0
         MVC   2(0,R5),0(R2)
         EX    R14,*-6
         SPACE
SCAN5    DS    0H
         LA    R14,1
         BXLE  R1,R14,SCAN0
         SPACE
         STH   R3,INDEXCNT
         TM    FLAGS,FPATTERN
         LA    R15,4
         BZ    SCANEXIT
         LA    R15,8
         SPACE
SCANEXIT DS    0H
         L     14,12(13)
         LM    0,12,20(13)
         B     0(R14,R15)
         SPACE 3
SCAN0A   DS    0H             SYNTAX ERROR - TOO MANY LEVELS
         SR    R15,R15
         B     SCANEXIT
         SPACE 2
SCAN2    DS    0H
         TM    FLAGS,FQUOTED  SPECIAL DSN?
         BZ    SCAN2A         NO
         LTR   R3,R3          YES, * IN FIRST LEVEL?
         BZ    SCAN0A         YES, ERROR
SCAN2A   DS    0H
         OI    FLAGS,FPATTERN
         SR    R14,R14
         LA    R1,1(R1)
         B     SCAN4
         SPACE 5
GETUID   DS    0H
         SPACE 2
         L     R15,ADDRPSCB
         USING PSCB,R15
         SR    R1,R1
         IC    R1,PSCBUSRL
         STH   R1,INDXLIST
         MVC   INDXLIST+2(0),PSCBUSER
         EX    R1,*-6
         DROP  R15
         SPACE 2
         BR    R14
         EJECT
*
*        END OF PATTERN DSNAME PROCESSING
*
         SPACE 2
ENDCHAIN DS    0H
         TM    FLAGS,FMATCH   WAS ANY DATA SET FOUND
         BO    NEXTDSN        YES, CONTINUE
         SPACE 2
         MVC   MSGTEXT1,MSGNOPAT
         LH    R14,MSGTEXT1
         LH    R15,4(R2)      GET PATTERN LENGTH
         LA    R0,0(R14,R15)
         STH   R0,MSGTEXT1
         LA    R14,MSGTEXT1(R14)
         BCTR  R15,0
         L     R1,0(R2)
         MVC   0(0,R14),0(R1)
         EX    R15,*-6
         SPACE 2
         LA    R1,MSGTEXT1
         SR    R0,R0
         BAL   R14,ERRORMSG
         B     NEXTDSN
         EJECT
*
*        SINGLE DATA SET NAME PROCESSING
*
         SPACE 2
NOPATTRN DS    0H
         BAL   R14,RLSEDS     RELEASE SPACE IN THIS DATA SET
         SPACE 3
*
*        GET NEXT DATA SET/INDEX LEVEL
*
         SPACE 2
NEXTDSN  DS    0H
         L     R2,24(R2)      GET LIST CHAIN ADDRESS
         LA    R2,0(R2)       CLEAR TOP BYTE
         LTR   R2,R2          ANOTHER ENTRY IN THE LIST?
         BNZ   NEXTPDL        YES, CONTINUE
         SPACE
         B     EXIT0          SUCESSFUL COMPLETION EXIT
         EJECT
*
*        SPACE RELEASE SUBROUTINE
*
         SPACE 3
RLSEDS   DS    0H
         ST    R14,R14RLSE
         SPACE 2
         TM    FLAGS,FQUOTED  DSNAME QUALIFIED?
         BZ    ALLOWIT        NO
         DSNCHECK DSNAME,TYPE=OUTPUT *** SEE IF ACCESS ALLOWED ***
         LA    R14,8
         CR    R15,R14                  IS IT?
         BNH   ALLOWIT                  YES
         LA    R1,DSNAME
         LINK  EP=TSO_200I
         B     EXITRLSE
         SPACE 2
ALLOWIT  DS    0H
         LA    R1,DAIRBLK     ADDRESS OF DAIR PARAMETER BLOCK
         USING DAPB08,R1
         XC    DAIRBLK(LDAIRBLK),DAIRBLK
         SPACE 2
         LA    R0,X'08'
         STH   R0,DA08CD
         SPACE 2
         LA    R0,DSNLEN
         ST    R0,DA08PDSN    DSNAME ADDR FOR DAIR
         SPACE 2
         CLEAR DA08UNIT
         SPACE
         MVC   DA08SER,VOLUME SET VOLUME NAME
         SPACE 3
         CLEAR DA08MNM
         SPACE 2
         MVC   DA08PSWD,PASSWORD
         SPACE 2
         OI    DA08DSP1,DA08SHR    ASSUME DISP=(SHR,KEEP,KEEP)
         OI    DA08DPS2,DA08KEEP
         OI    DA08DPS3,DA08KEP
         SPACE
         OI    DA08CTL,DA08UID
         TM    FLAGS,FQUOTED  DSNAME QUALIFIED?
         BZ    NOTQUAL        NO
         XI    DA08CTL,DA08UID     YES, NO USERID REQUIRED
         SPACE 2
NOTQUAL  DS    0H
         CLEAR DA08DDN
         SPACE 2
         BAL   R14,CALLDAIR   ALLOCATE THE DATA SET
         LTR   R15,R15        CHECK RETURN CODE
         BNZ   NOTALLOC       DATA SET DID NOT ALLOCATE
         SPACE 2
         OI    FLAGS,FMATCH   INDICATE DATA SET MATCH
         LA    R1,DAIRBLK
         TM    DA08DSO,X'42'  DSORG=PS OR PO?
         BZ    NORLSE         NO, BYPASS RELEASE
         SPACE 2
         MVC   DDNAME,DA08DDN
         SPACE 2
         MVC   REALDCB(LDCB),DUMMYDCB
         LA    R1,EXLST
         IC    R0,DCBEXLST-IHADCB+REALDCB
         ST    R1,DCBEXLST-IHADCB+REALDCB
         STC   R0,DCBEXLST-IHADCB+REALDCB
         SPACE 2
         MVC   DCBDDNAM-IHADCB+REALDCB,DDNAME
         SPACE 2
         MVC   RLSEDCB(LDCB),REALDCB
         SPACE 2
         LA    R0,JFCB
         ST    R0,EXLST
         MVI   EXLST,X'87'
         SPACE 2
         MVI   OPENLIST,X'80'
         RDJFCB RLSEDCB,MF=(E,OPENLIST)
         SPACE 2
         OI    JFCBTSDM,X'08' PREVENT JFCB RE-WRITE
         NI    JFCBIND2,X'3F'
         OI    JFCBIND2,X'80' SET 'DISP=MOD' FLAG
         SPACE 2
         OPEN  (REALDCB,OUTPUT),TYPE=J,MF=(E,OPENLIST)
         SPACE 2
         STM   14,12,12(R13)  SAVE REGISTERS
         EJECT
*
*        CALCULATE TOTAL AMOUNT OF SPACE IN DATA SET
*
         SPACE 2
         L     R1,REALDCB+(DCBDEBAD-IHADCB) GET DEB ADDR
         SR    R14,R14
         SR    R15,R15
         IC    R14,DEBNMEXT(R1) GET EXTENT COUNT
         IC    R15,DEBAMLNG(R1) GET EXTENT SIZE
         SPACE 2
         SR    R0,R0
         SPACE
EXTNTCNT DS    0H
         AH    R0,DEBDVMOD+14(R1) ADD NUMBER OF TRACKS IN EXTENT
         AR    R1,R15         JUMP EXTENT POINTER
         BCT   R14,EXTNTCNT   LOOP THROUGH EXTENTS
         SPACE 2
*        R0 = TOTAL NUMBER OF TRACKS IN DATA SET
         SPACE 2
         BCTR  R0,0           DECREMENT FOR CALCULATIONS
         STH   R0,SIZEDS      SAVE TOTAL DATA SET SIZE
         SPACE 2
         LR    R3,R13
         L     R1,DCBDEBAD-IHADCB+REALDCB DEB ADDRESS
         LA    R2,DCBFDAD-IHADCB+REALDCB CCHHR OF LAST RECORD
         MVC   SAVEFDAD,REALDCB+(DCBFDAD-IHADCB)  SAVE LAST RECORD ADDR
         L     R15,CVT        ADDR OF CVT
         L     R15,CVTPRLTV(R15) CCHHR TO TTR CONVERT
         BALR  R14,R15
         LR    R13,R3
         LM    1,12,24(13)    RELOAD REGISTERS
         SPACE 2
         SRL   R0,16          GET RELATIVE # OF LAST TRACK
         SPACE
         LH    R1,SIZEDS      TOTAL AMOUNT IN DATA SET
         SR    R1,R0          TOTAL FREE SPACE
         BNP   FULLDS         IF NONE IS FREE
         SPACE
         STH   R1,SIZEFREE
         SPACE
         TM    FLAGS,FPARTIAL PARTIAL SPACE REQUEST?
         BZ    FREEALL        NO, RELEASE ALL SPACE
         EJECT
*
*        COMPUTE ADDRESS OF LAST TRACK IN DATA SET
*
         SPACE 1
         SH    R1,SIZESAVE    AMOUNT OF SPACE TO SAVE
         BNP   NORLSE         NONE TO RELEASE
         SPACE 1
         STH   R1,SIZEFREE    SAVE AMOUNT TO BE RELEASED
         SPACE
         BAL   R14,OPENRLSE   OPEN THE 'RELEASE' DCB
         SPACE
         LH    R0,SIZEDS      TOTAL AMOUNT IN DATA SET
         SH    R0,SIZEFREE    MINUS AMOUNT TO FREE
         SLL   R0,16          LEAVES REL # OF LAST TRACK
         LA    R1,X'100'      FORM TTR0 OF LAST RECORD
         OR    R0,R1
         SPACE
         L     R1,RLSEDCB+(DCBDEBAD-IHADCB) GET DEB ADDRESS
         LA    R2,RLSEDCB+(DCBFDAD-IHADCB) AREA FOR CCHHR
         L     R15,CVT
         L     R15,CVTPCNVT(R15) TTR TO CCHHR CONVERT
         LR    R3,R13
         BALR  R14,R15
         LR    R13,R3
         LM    14,12,12(R13)
         SPACE 2
FREEALL  DS    0H
         BAL   R14,OPENRLSE   OPEN THE 'RELEASE' DCB IF NOT OPEN
         SPACE
         CLOSE REALDCB,MF=(E,OPENLIST) RELEASE SPACE
         SPACE 2
         CLOSE RLSEDCB,MF=(E,OPENLIST) RESTORE CORRECT LAST
         TM    FLAGS,FPARTIAL          PARTIAL RELEASE?
         BZ    NOTPART                 NO THIS IS A FULL RELEASE
         NI    JFCBIND1,X'3F'          SET TO NO RELEASE
         OPEN  (RLSEDCB,OUTPUT),TYPE=J,MF=(E,OPENLIST)
         MVC   RLSEDCB+DCBFDAD-IHADCB(8),SAVEFDAD
         CLOSE RLSEDCB,MF=(E,OPENLIST)
         SPACE
*                                      RECORD ADDRESS
         SPACE 2
NOTPART  LH    R1,SIZEFREE    TOTAL AMOUNT OF SPACE FREED
         CVD   R1,DOUBLE
         OI    DOUBLE+7,X'0F'
         SPACE 2
         SR    R15,R15
         LA    R14,10         COMPUTE WIDTH OF NUMBER
         SPACE
FIXWIDTH DS    0H
         SR    R0,R0
         DR    R0,R14
         LA    R15,1(R15)
         LTR   R1,R1          SIZE DETERMINED?
         BNZ   FIXWIDTH       NO
         SPACE 1
         LR    R14,R15
         SLL   R15,4          SET WIDTH FOR UNPK
         SPACE 1
         UNPK  MSGTEXT1+4(0),DOUBLE
         EX    R15,*-6
         SPACE
         MVI   MSGTEXT1+4,C' '
         SPACE
         LA    R15,MSGTEXT1+5(R14)
         MVC   0(L'MSGTRACK,R15),MSGTRACK
         LH    R1,SIZEFREE    TOTAL SIZE FREED
         BCTR  R1,0
         LTR   R1,R1          ONLY ONE TRACK?
         LA    R15,L'MSGTRACK(R15)
         BZ    ONETRACK       YES
         SPACE
         MVI   0(R15),C'S'
         LA    R15,1(R15)
         SPACE
ONETRACK DS    0H
         MVC   0(L'MSGRLSED,R15),MSGRLSED
         LA    R15,L'MSGRLSED(R15)
         SPACE
         MVC   0(44,R15),JFCB DATA SET NAME
         LA    R15,44(R15)
         LA    R1,MSGTEXT1
         SR    R15,R1         TOTAL MSG LENGTH
         SLL   R15,16
         ST    R15,0(R1)
         SR    R0,R0
         SPACE
         BAL   R14,ERRORMSG
         SPACE 1
FREEDS   DS    0H
         LA    R1,DAIRBLK
         XC    DAIRBLK(LDAIRBLK),DAIRBLK
         USING DAPB18,R1
         SPACE 1
         MVC   DA18DDN,DDNAME UNALLOC THE DATA SET
         LA    R0,X'18'
         STH   R0,DA18CD
         SPACE 2
         BAL   R14,CALLDAIR
         SPACE 2
EXITRLSE DS    0H
         L     R14,R14RLSE
         BR    R14
         EJECT
FULLDS   DS    0H
         MVC   MSGTEXT1,MSGSPACE
         B     SKIPRLSE
         SPACE 2
NORLSE   DS    0H
         MVC   MSGTEXT1,MSGNRLSE
         SPACE 2
SKIPRLSE DS    0H
         LH    R15,MSGTEXT1
         LA    R14,44(R15)
         STH   R14,MSGTEXT1
         SPACE
         LA    R15,MSGTEXT1(R15)
         MVC   0(44,R15),JFCB
         SPACE 2
         CLOSE REALDCB,MF=(E,OPENLIST)
         SPACE 2
         SR    R0,R0
         LA    R1,MSGTEXT1
         BAL   R14,ERRORMSG
         B     FREEDS
         EJECT
OPENRLSE DS    0H
         TM    RLSEDCB+(DCBOFLGS-IHADCB),X'10'
         BCR   1,R14
         ST    R14,R14SAVE
         SPACE
         OI    JFCBIND1,X'C0' SET 'RELEASE' FLAGS
         OPEN  (RLSEDCB,OUTPUT),TYPE=J,MF=(E,OPENLIST)
         SPACE
         L     R14,R14SAVE
         BR    R14
         EJECT
*
*        DATA SET NAME VALIDITY CHECK EXIT
*
*
         SPACE 3
VERDSN   ENTER VALCHECK
         CLEAR VOLUME
         SPACE
         TM    6(R9),X'80'    DSNAME SPECIFIED?
         MVC   MSGTEXT1,MSGDSERR
         BZ    DSNERROR       NO, MUST ONLY BE MEMBER NAME
         SPACE 3
         CLEAR DSNAME
         SPACE
         L     R15,0(R2)      GET ADDR OF DSNAME
         LH    R14,4(R2)      GET DSN LENGTH
         STH   R14,DSNLEN
         SPACE