         TITLE 'T580P130 - ADD COST CENTRE TO TIME SHEET RECORDS'
         MACRO
&NAME    TEST  &X,&Y               TEST FIELD FOR NUMERIC
         LCLC  &L
&NAME    LA    R2,&X &L       SETC  'L'''
         LA    R3,&L&X          BAL   R4,NUMERIC&Y          MEND
         SPACE 5
T580P130 CSECT
         PRINT ON,GEN,NODATA
         SPACE 1
*        REGISTER EQUATES AND USAGE
         SPACE 1
R0       EQU   0
R1       EQU   1
R2       EQU   2         WORK REGISTER
R3       EQU   3         WORK REGISTER
R4       EQU   4         BAL RETURN ADDRESS
R5       EQU   5         ADDRESS OF SYSPRINT BUFFER
R6       EQU   6         ADDRESS OF SYSUT1 BUFFER
R7       EQU   7         ADDRESS OF SYSUT2 BUFFER
R8       EQU   8         ADDRESS OF SYSOUT BUFFER
R9       EQU   9         ADDRESS OF SYSIN BUFFER / PARM POINTER
R10      EQU   10        WORK REGISTER
R11      EQU   11        BASE REGISTER 3
R12      EQU   12        BASE REGISTER 2
R13      EQU   13        SAVE AREA POINTER / BASE REGISTER 1
R14      EQU   14        BALR RETURN ADDRESS
R15      EQU   15        BALR ROUTINEADDRESS
         EJECT
***********************************************************************
*                                                                     *
*        FORMAT OF TIME SHEET RECORDS                                 *
*                                                                     *
***********************************************************************
         SPACE 1
TIMECARD DSECT
TIMECLAS DS    CL4                 CARD ID
TIMETEAM DS    CL3                 MISD TEAM
TIMEINIT DS    CL3                 PROGRAMMERS INITIALS
TIMEDATE DS    CL6                 YYMMDD OF END OF WEEK
TIMEPROJ DS    CL4                 CHARGE CODE
TIMEPROG DS    CL8                 PROGRAM NAME
TIMECODE DS    CL2                 WORK CODE
TIMEPERC DS    CL2                 PERCENTAGE OF WORK REMAINING
TIMETIME DS    CL2                 HOURS WORKED
TIMESPR1 DS    CL5                 UNUSED
TIMECOMM DS    CL15                COMMENTS
TIMECC   DS    CL5                 COST CENTRE
TIMEENT  DS    CL2                 ENTITY
TIMELOCN DS    CL4                 LOCATION
TIMEXCLS DS    CL3                 EXPENSE CLASS
TIMESPR2 DS    CL11                EXPENSE CLASS
TIMEFLAG DS    CL1                 CORRECTION FLAG
TIMELGTH EQU   *-TIMECARD          LENGTH OF DSECT
T580P130 CSECT
         SPACE 5
***********************************************************************
*                                                                     *
*        FORMAT OF PROJECT LOG RECORDS.                               *
*                                                                     *
***********************************************************************
         SPACE 1
PROJCARD DSECT
PROJPROJ DS    CL4                 PROJECT NUMBER
PROJCHRG DS    CL4                 CHARGE CODE
PROJCC   DS    CL5                 COST CENTRE
PROJPERC DS    CL3                 PERCENTAGE TO BE CHARGED
PROJACRO DS    CL8                 SYSTEM ACRONYM
PROJDESC DS    CL29                DESCRIPTION OF CHARGE CODE
PROJISUE DS    CL15                PERSON TO WHOM ISSUED
PROJDATO DS    CL6                 DATE PROJECT OPENED
PROJDATC DS    CL6                 DATE PROJECT CLOSED
PROJLGTH EQU   *-PROJCARD          LENGTH OF DSECR
T580P130 CSECT
         EJECT
***********************************************************************
*        FORMAT OF TABLE02 ENTRIES.                                   *
***********************************************************************
         SPACE 1
TABLE2   DSECT
TAB2ID   DS    CL7                 CARC IDENTIFIER
         DS    CL8                 UNUSED
TAB2CODE DS    CL2                 WORK CODE
         DS    CL13                UNUSED
TAB2DESC DS    CL20                DESCRIPTION
         DS    CL30                UNUSED
TAB2LGTH EQU   *-TABLE2            LENGTH OF DSECT
         SPACE 5
***********************************************************************
*        FORMAT OF TEMPORARY CHAIN OF ELEMENTS
***********************************************************************
         SPACE 1
TAB2CHN  DSECT
TAB2NEXT DS    CL4                 ADDRESS OF NEXT ENTRY
TAB2NTRY DS    CL2                 WORK CODE
TAB2CHNL EQU   *-TAB2CHN           LENGTH OF CHAIN ELEMENT
         EJECT
***********************************************************************
*        FORMAT OF TABLE03 ENTRIES.                                   *
***********************************************************************
         SPACE 1
TABLE3   DSECT
TAB3ID   DS    CL7                 CARD IDENTIFIER
         DS    CL8                 UNUSED
TAB3DESC DS    CL12                SORT FIELD DESCRIPTION
         DS    CL1                 UNUSED
TAB3NAME DS    CL8                 SORT FIELD NAME
         DS    CL44                UNUSED
TAB3LGTH EQU   *-TABLE3            LENGTH OF DSECT
         SPACE 5
***********************************************************************
*        FORMAT OF TEMPORARY CHAIN OF ELEMENTS                        *
***********************************************************************
         SPACE 1
TAB3CHN  DSECT
TAB3NEXT DS    CL4                 ADDRESS OF NEXT ELEMENT
TAB3DES  DS    CL12                SORT FIELD DESCRIPTION
TAB3NME  DS    CL8                 SORT FIELD NAME
TAB3CHNL EQU   *-TAB3CHN           LENGTH OF CHAIN ELEMENT
         EJECT
***********************************************************************
*        FORMAT OF SYSPRINT ( T580R130 ) PRINT LINE                   *
***********************************************************************
         SPACE 1
PRINTLNE DSECT
LINECTRL DS    CL1                 CARRIAGE CONTROL CHARACTER
         DS    CL1                 SPACE
LINEID   DS    CL4                 CARDTYPE
         DS    CL3                 SPACES
LINETEAM DS    CL3                 MISD TEAM
         DS    CL3                 SPACES
LINEINIT DS    CL3                 PROGRAMMER'S INITIALS
         DS    CL2                 SPACES
LINEYY   DS    CL2                 YY OF W/E
LINES1   DS    CL1                 '/'
LINEMM   DS    CL2                 MM OF W/E
LINES2   DS    CL1                 '/'
LINEDD   DS    CL2                 DD OF W/E
         DS    CL3                 SPACES
LINEPROJ DS    CL4                 CHARGE CODE
         DS    CL4                 SPACES
LINEPROG DS    CL8                 PROGRAM NAME
         DS    CL3                 SPACES
LINECODE DS    CL2                 WORK CODE
         DS    CL4                 SPACES
LINEPERC DS    CL2                 PER CENTAGE OF WORK REMAINING
         DS    CL5                 SPACES
LINEHOUR DS    CL2                 TIME SPENT ON PROJECT
         DS    CL3                 SPACES
LINECOMM DS    CL15                COMMENTS
         DS    CL4                 SPACES
LINEFLAG DS    CL1                 CORRECTION FLAG
         DS    CL3                 SPACES
LINEACTN DS    0CL38               ACTION / ERROR MESSAGE
         DS    CL32                TEXT OF MESSAGE
LINEACT1 DS    CL3                 MAJOR COST CENTRE
LINEACT2 DS    CL1                 '.'
LINEACT3 DS    CL2                 MINOR COST CENTRE
         DS    CL2                 SPACES
LINEACT4 DS    CL1                 REJECTED FLAG
         DS    CL1                 SPACE
LINELGTH EQU   *-PRINTLNE          LENGTH OF DSECT
T580P130 CSECT
         EJECT
***********************************************************************
*                                                                     *
*        FORMAT OF A CHAIN ELEMENT CONSTRICTED FROM A PROJECT         *
*         LOG ENTRY.  EACH PROJECT LOG ENTRY WITH A % OF 100          *
*         AND HAS NOT BEEN CLOSED CREATES A TRUE ENTRY, WHILE         *
*         PROJECTS DISTRIBUTED ACROSS A NUMBER OF COST CENTRES        *
*         CREATE PSEUDO ENTRIES.  THESE ENTRIES INITIALLY COMPRISE    *
*         A CHAIN, BUT ARE LATER MOVED TO CONTIGUOUS AND SORTED       *
*         INTO CHARGE CODE SEQUENCE.  EACH ENTRY ON THIS FINAL        *
*         TABLE COMPRISES A FOUR BYTE CHARGE CODE AND A FIVE          *
*         BYTE COST CENTRE OR PSEUDO CODE.                            *
*                                                                     *
***********************************************************************
         SPACE 5
*********************************************
* CHNNEXT  *          *          *          *
*        ADDRESS OF NEXT CHAIN ELEMENT      *
*          *          *          *          *
*********************************************
* CHNCHRG  *          *          *          *
*              CHARGE CODE                  *
*          *          *          *          *
*********************************************
* CHNCOST  *          *          *          *
*              COST CENTRE                  *
*          *          *          *          *
*********************************************
*   COST   * CHNLAST  *          *          *
*  CENTRE  * ADDRESS OF LAST CHAIN ELEMENT  *
*  CONT'D  *           *         *          *
*********************************************
* CHNFLAG  *
*          *
*  FLAGS   *
************
         SPACE 5
CHNNEXT  EQU   0                   ADDRESS OF NEXT CHAIN ELEMENT
CHNCHRG  EQU   4                   CHARGE CODE
CHNCOST  EQU   8                   COST CENTRE
CHNLAST  EQU   12                  ADDRESS OF LAST CHAIN ELEMENT
CHNFLAG  EQU   16                  MISCELLANEOUS FLAGS
         SPACE 1
PROJCLOS EQU   1                   FLAG - PROJECT CLOESD
         EJECT
NTRYCHRG EQU   0                   CHARGE CODE
NTRYCOST EQU   4                   COST CENTRE
NTRYFLAG EQU   9                   MISCELLANEOUS FLAGS
         SPACE 5
*        NOTE :
*              THE PREVIOUS EQUATES ALSO APPLY TO THE
*               FINAL TABLE ENTRIES CONTRUCTED IN A SINGLE TABLE.
         EJECT
***********************************************************************
*        HOUSEKEEPING                                                 *
***********************************************************************
         SPACE 1
         PGMIN EQUATES=NO,USING=(R13,R12,R11) ESTABLISH ADDRESSABILITY
         PRINT NOGEN               SUPPRESS MACRO EXPANSION
         ST    R1,PARMPNTR         PRESERVE PARM POINTER
         ST    R13,E15R13S1        PRESERVE REG 13 FOR E15
         ST    R13,E35R13S1        PRESERVE REG 13 FOR E35
         L     R15,DATEADDR        GET ADDRESS OF DATERTN
         LA    R1,ADATEFLD         POINT R1 AT ADDRESS OF DATE FIELD
         BALR  R14,R15             PASS CONTROL TO DTERTN
         SPACE 5
***********************************************************************
*        OPEN DATA SETS                                               *
***********************************************************************
         SPACE 1
         LA    R10,MAXDS           ESTABLISH LOOP
         LA    R2,DCBTABLE         POINT AT AD-CON TABLE
LOOP1    BAL   R4,DDFIND           VERIFY DD STATEMENT EXISTS
         BAL   R4,OPEN             OPEN DATA SET IF PRESENT
         LA    R2,NTRYSIZE(,R2)    POINT AT NEXT TABLE ENTRY
         BCT   R10,LOOP1           PROCESS NEXT DATA SET
         LA    R5,SAFETY           POINT BUFFER POINTERS AT
         LA    R7,UT2REC            PSEUDO-BUFFER, LEST NO
         LA    R8,SAFETY            DD STATEMENT IS PRESENT
         EJECT
***********************************************************************
*        THIS ROUTINE PUTS OUT INITIAL INFORMATORY MESSAGES           *
*         TO SYSOUT ( T580R131 ).                                     *
***********************************************************************
         SPACE 1
         MVI   0(R8),PAGESKIP      ESTABLISH PAGE SKIP FOR SYSOUT
         MVI   0(R5),PAGESKIP       AND FOR SYSPRINT
         BAL   R4,PRINTOUT         SKIP TO NEW PAGE
         MVI   0(R5),SPCE3AFT      ESTABLISH TRIPLE SPACE
         MVI   0(R8),SPCE3AFT      ESTABLISH TRIPLE SPACE FOR SYSOUT
         MVC   5(L'LINE01,R8),LINE01 ADD HEADING LINE TO SYSOUT
         BAL   R4,PRINTOUT         WRITE HEADING LINE
         MVC   5(L'LINE02,R8),LINE02 ADD SUB-HEADING TO SYSOUT
         BAL   R4,PRINTOUT         WTITE SUB-HEADING
         LA    R10,MAXDS           ESTABLISH DETAIL LOOP
         LA    R2,DCBTABLE         POINT AT AD-CON TABLE
LOOP2    TM    0(R2),DDSTAT        TEST IF DD STATEMENT PRESENT
         BZ    *+14                BYPASS PRINT IF NOT
         MVC   10(8,R8),4(R2)      ADD DD NAME TO SYSOUT
         BAL   R4,PRINTOUT         PRINT DETAIL LINE
         LA    R2,NTRYSIZE(,R2)    POINT TO NEXT TABLE ENTRY
         BCT   R10,LOOP2           PROCESS NEXT ENTRY
         MVI   0(R8),SPCE2AFT       IN SYSPRINT AND SYSOUT
         BAL   R4,PRINTOUT          AND WRITE IT
         SPACE 5
***********************************************************************
*        VERIFY THAT SYSUT1 DD STATEMENT EXISTS                       *
***********************************************************************
         SPACE 1
TESTUT1  TM    SYSUT1SW,DDSTAT     TEST FOR SYSUT1 STATEMENT
         BO    TESTUT1X            BRANCH IF ONE EXISTS
         MVC   COMPCODE,COND16     SET CONDITION CODE TO 16
         WTO   'T580P130     ***** NO SYSUT1 STATEMENT *****'
         WTO   'T580P130     ***** PROCESSING BYPASSED *****'
         MVC   5(L'LINE08,R8),LINE08 ADD ERROR MESSAGE TO SYSOUT
         BAL   R4,PRINTOUT         WRITE ERROR MESSAGE
         MVC   5(L'LINE09,R8),LINE09 TELL OF INACTION
         BAL   R4,PRINTOUT         WRITE MESSAGE
         B     PRINTCDE            PRINT CONDITION CODE
TESTUT1X EQU   *                   EXIT FROM RTN
         EJECT
***********************************************************************
*        BUILD UP TABLE OF WORK CODES                                 *
***********************************************************************
         SPACE 1
         USING TABLE2,R6           ESTABLISH RECORD AND
         USING TAB2CHN,R2           EMELENT ADDRESSABILTTY
         SPACE 1
         TM    TABLE2SW,DDOPEN     TEST FRO DD STATEMENT PRESENT
         BZ    BLDTAB2X            BRANCH IF NOT
         SR    R3,R3               ZEROISE COUNTING REGISTER
         LA    R2,CHAIN2           POINT R2 AT FIRST CHAIN FIELD
GETTAB02 GET   TABLE02             GET TABLE RECORD
         LR    R6,R1               ESTABLISH ADDRESSABILITY OF RECORD
         CLC   TAB2ID,=C'TABLE02'  TEST FOR DETAIL IDENTIFIER
         BNE   GETTAB02            GET ANOTHER IF NOT
         AP    CNTTAB2,ONE         INCREMENT COUNTER
       GETMAIN R,LV=6              GET CORE TO BUILG ELEMENT
         ST    R1,TAB2NEXT         POINT PREVIOUS ELEMENT AT THIS ONE
         LR    R2,R1               POINT R2 AT THIS ELEMENT
         XC    TAB2NEXT,TAB2NEXT   ZEROISE FORWARD POINTER
         MVC   TAB2NTRY,TAB2CODE   ADD WORK CODE TO ELE,ENT
         LA    R3,1(,R3)           INCREMENT BINARY COUNTER
         B     GETTAB02            GET NEXT RECORD
         SPACE 1
         DROP  R2                  DROP ELEMENT ADDRESSABILITY
         USING TAB2CHN,R1           AND RE-ESTABLISH IT
         SPACE 1
ENDTAB02 ST    R3,NUMCODET         PRESERVE NUMBER OF ENTRIES
         ZAP   DECIMAL,CNTTAB2     ELEMENT COUNT TO WORK AREA
         CP    DECIMAL,ZERO        TEST IF NO ELEMENTS
         BE    BLDTAB2X            EXIT IF NOT
         MP    DECIMAL,TWO         CALCULATE TABLE SIZE
         CVB   R0,DECIMAL          CONVERT SIZE TO BINARY
       GETMAIN R,LV=(R0)           ACQUIRE CORE FOR TABLE
         ST    R1,ADRCODET         PRESERVE ADDRESS OF TABLE
         LR    R2,R1               INITIALISE TABLE POINTER
         L     R3,CHAIN2           GET ADDRESS OF 1ST CHAIN ELEMENT
TAB2LOOP LTR   R1,R3               TEST FOR END OF CHAIN
         BZ    BLDTAB2X            EXIT IF YES
         MVC   0(2,R2),TAB2NTRY    ADD ELEMENT CONTENTS TO TABLE
         LA    R2,2(,R2)           INCREMENT TO NEXT AABLE ENTRY
         L     R3,TAB2NEXT         GET ADDRESS OF NEXT ELEMENT
      FREEMAIN R,LV=6,A=(R1)       FREE ELEMENT'S CORE
         B     TAB2LOOP            LOOP BACK TO PROCESS NEXT
BLDTAB2X LA    R2,TABLE2SW         POINT AT DCB POINTER
         BAL   R4,CLOSE            COOSE DATA SET IF OPEN
         DROP  R1                  DROP
         DROP  R6                   ADDRESSABILITY
         EJECT
***********************************************************************
*        BUILD UP TABLE OF SORT DESCRIPTIONS                          *
***********************************************************************
         SPACE 1
         USING TABLE3,R6           ESTABLISH RECORD AND
         USING TAB3CHN,R2           EMELENT ADDRESSABILTTY
         SPACE 1
         TM    TABLE3SW,DDOPEN     TEST FRO DD STATEMENT PRESENT
         BZ    BLDTAB3X            BRANCH IF NOT
         SR    R3,R3               ZEROISE COUNTING REGISTER
         LA    R2,CHAIN3           POINT R2 AT FIRST CHAIN FIELD
GETTAB03 GET   TABLE03             GET TABLE RECORD
         LR    R6,R1               ESTABLISH ADDRESSABILITY OF RECORD
         CLC   TAB3ID,=C'TABLE03'  TEST FOR DETAIL IDENTIFIER
         BNE   GETTAB03            GET ANOTHER IF NOT
         AP    CNTTAB3,ONE         INCREMENT COUNTER
       GETMAIN R,LV=24             GET CORE TO BUILG ELEMENT
         ST    R1,TAB3NEXT         POINT PREVIOUS ELEMENT AT THIS ONE
         LR    R2,R1               POINT R2 AT THIS ELEMENT
         XC    TAB3NEXT,TAB3NEXT   ZEROISE FORWARD POINTER
         MVC   TAB3DES,TAB3DESC    ADD DESCRIPTION TO ELEMENT
         MVC   TAB3NME,TAB3NAME    ADD FIELD NAME TO ELEMENET
         LA    R3,1(,R3)           INCREMENT BINARY COUNTER
         B     GETTAB03            GET NEXT RECORD
         SPACE 1
         DROP  R2                  DROP ELEMENT ADDRESSABILITY
         USING TAB3CHN,R1           AND RE-ESTABLISH IT
         SPACE 1
ENDTAB03 ST    R3,NUMSRTAB         PRESERVE NUMBER OF ENTRIES
         ZAP   DECIMAL,CNTTAB3     ELEMENT COUNT TO WORK AREA
         CP    DECIMAL,ZERO        TEST IF NO ELEMENTS
         BE    BLDTAB3X            EXIT IF NOT
         MP    DECIMAL,TWENTY      CALCULATE TABLE SIZE
         CVB   R0,DECIMAL          CONVERT SIZE TO BINARY
       GETMAIN R,LV=(R0)           ACQUIRE CORE FOR TABLE
         ST    R1,ADRSRTAB         PRESERVE ADDRESS OF TABLE
         LR    R2,R1               INITIALISE TABLE POINTER
         L     R3,CHAIN3           GET ADDRESS OF 1ST CHAIN ELEMENT
TAB3LOOP LTR   R1,R3               TEST FOR END OF CHAIN
         BZ    BLDTAB3X            EXIT
         MVC   0(20,R2),TAB3DES    ADD ELEMENT CONTENTS TO TABLE
         LA    R2,20(,R2)          INCREMENT TO NEXT TABLE ENTRY
         L     R3,TAB3NEXT         GET ADDRESS OF NEXT ELEMENT
      FREEMAIN R,LV=24,A=(R1)      FREE ELEMENT'S CORE
         B     TAB3LOOP            LOOP BACK TO PROCESS NEXT
BLDTAB3X LA    R2,TABLE3SW         POINT AT DCB POINTER
         BAL   R4,CLOSE            COOSE DATA SET IF OPEN
         DROP  R1                  DROP
         DROP  R6                   ADDRESSABILITY
         EJECT
***********************************************************************
*        DETERMINE WHETHER THE DATA ARE TO BE SORTED                  *
***********************************************************************
         SPACE 1
TESTSORT LA    R10,SORTDS          ESTABLISH LOOP
         SR    R3,R3               ZEROISE COUNTER
         LA    R2,SORTABLE         POINT AT SORT DD TABLE
         BAL   R4,DDFIND           VERIFY DD STATEMENT EXISTS
         LA    R3,1(,R3)           INCREMENT 'FOUND' COUNT
         LA    R2,NTRYSIZ2(,R2)    POINT AT NEXT TABLE ENTRY
         BCT   R10,*-12            VERIFY NEXT DD STATEMENT
         LA    R10,SORTDS          SET UP VALUE FOR COMPARE
         CR    R10,R3              TEST IF ALL STATEMENTS SUPPLIED
         BE    TSTSRTND            BRANCH IF YES TO ROUTINE END
         LTR   R3,R3               TEST IF NO SORT STATEMENTS SUPPLIED
         BZ    NOSORT              BRANCH IF NOT
         MVC   5(L'LINE18,R8),LINE18  STATEMENTS IN SYSPRINT & SYSOUT
         BAL   R4,PRINTOUT         WRITE THE MESSAGE
         MVC   5(L'LINE19,R8),LINE19  SYSPRINT AND SYSOUT
         BAL   R4,PRINTOUT         WRITE THE MESSAGE
         LA    R10,SORTDS          ESTABLISH LOOP
         LA    R2,SORTABLE         POINT AT START OF TABLE
LOOP3    TM    0(R2),DDSTAT        TEST IF DD STATEMENT PRESENT
         BO    *+14                BRANCH IF YES
         MVC   10(8,R8),4(R2)       AND SYSOUT
         BAL   R4,PRINTOUT         PRINT THE NAME
         LA    R2,NTRYSIZ2(,R2)    POINT TO NEXT TABLE ENTRY
         BCT   R10,LOOP3           PROCESS NEXT ENTRY
         B     TELNOSRT            TELL OF NO SORT FUNCTION
         SPACE 1
NOSORT   MVC   5(L'LINE21,R8),LINE21 TELL OF NO SORT DD STATEMENTS
         BAL   R4,PRINTOUT          AND WRITE THE MESSAGE
         SPACE 1
TELNOSRT MVI   0(R8),SPCE3AFT      ESTABLISH FOLLOWING SPACES
         MVC   5(L'LINE20,R8),LINE20 MOVE IN 'NO SORT ' MESSAGE
         BAL   R4,PRINTOUT          AND PRINT IT
         OI    SORTSW+1,X'F0'      ENSSURE SORT IS BYPASSED
         B     PARMEND             BYPASS PARM PROCESSING
         SPACE 1
TSTSRTND EQU   *                   END OF 'TEST FOR SORT' ROUTINE
         EJECT
***********************************************************************
*        PROCESS PARM FIELDS ( DETERMINE SORT SEQUENCE )              *
***********************************************************************
         SPACE 1
PARM     EQU   *                   PROCESS PARM SUB-FIELDS
         LA    R2,E15EXIT          GET ADDRESS OF E15 TERMINATION RTN
         L     R3,SYSUT1SW         GET ADDRESS OF SYSUT1 DCB
         ST    R2,DCBEODAD-IHADCB(,R3) ALTER SYSUT1 EODAD ADDR FOR SORT
         MVC   5(L'LINE25,R8),LINE25  WILL BE SORTED
         BAL   R4,PRINTOUT         WRITE THE MESSAGE
PARMGET  BAL   R4,GETPARM          GET SUB-FIELD FROM PARM
         B     PARMDONE            END OF PARM SO DESCRIBE
         L     R4,ADRSRTAB         POINT AT SORT FIELD TABLE
         L     R10,NUMSRTAB        ESTABLISH LOOP
         B     *+8                 BYPASS FIRST TIME
LOOP4    LA    R4,NTRYSIZ3(,R4)    POINT AT NEXT ENTRY
         EX    R3,PARMCLC          TEST FOR MATCH
         BE    PARMGOOD            BRANCH IF YES
         BCT   R10,LOOP4           TEST AGAINST NEXT TABLE ENTRY
         MVC   5(L'LINE29,R8),LINE29 IN SYSPRINT AND SYSOUT
         BAL   R4,PRINTOUT         WRITE THE MESSAGE
         EX    R3,PARMMVC          ADD PARM SUB-FIELD
         BAL   R4,PRINTOUT         WRITE THE MESSAGE
DEFAULT3 MVC   5(L'LINE30,R8),LINE30 TELL IT WILL BE IGNORED
         BAL   R4,PRINTOUT          AND PRINT THE MESSAGE
         B     DEFAULT2            TELL OF DEFAULT SEQUENCE
         SPACE 1
PARMCLC  CLC   12(0,R4),0(R2)      EXECUTED COMPARE INSTRUCTION
PARMMVC  MVC   10(0,R8),0(R2)      EXECUTED MOVE INSTRUCTION
         SPACE 1
PARMGOOD CP    CNTPARM,PARMLIMT    TEST IF LIMIT EXCEEDED
         BNH   PARMPROC            BRANCH IF NOT
         MVC   5(L'LINE31,R8),LINE31  IN SYSPRINT AND SYSOUT
         BAL   R4,PRINTOUT         WRITE THE MESSAGE
         BAL   R4,PARMPUT          PRINT THE PARM
         B     DEFAULT3            TELL PARM IGNORED
         SPACE 1
PARMPROC LR    R2,R4               POINT R2 AT TABLE ENTRY
         BAL   R4,FLDADD           MODIFY SORT FIELD AREA
         B     PARMGET             GET NEXT SUB-FIELD
         EJECT
***********************************************************************
*        TERMINATE PARM PROCESSING                                    *
***********************************************************************
         SPACE 1
PARMDONE CP    CNTPARM,ZERO        TEST IF PARM SUPPLIED
         BE    DEFAULT             BRANCH IF NOT
         LA    R2,SORTDUP          POINT R2 AT ADDITIONAL SORT FIELD
         BAL   R4,FLDADD           MODIFY FIELD TO GROUP DUPLICATES
         MVC   FLDADDR(8),REQADDR  ESTABLISH MODIFIED FIELD IN SORT
         MVC   5(L'LINE32,R8),LINE32  IN SYSPRINT AND SYSOUT
         BAL   R4,PRINTOUT         WRITE THE LINE
         BAL   R4,PARMPUT          PRINT THE PARM
         B     PARMEND             TERMINATE PARM PROCESSING
         SPACE 1
DEFAULT  MVC   5(L'LINE26,R8),LINE26 TELL OF DEFAULT SORT
         BAL   R4,PRINTOUT          AND PRINT THE LINE
DEFAULT2 MVI   0(R8),SPCE3AFT      ESTABLISH TRIPLE SPACE
         MVC   10(L'LINE27,R8),LINE27 INDICATE SEQUENCE
         BAL   R4,PRINTOUT         PRINT THE LINE
PARMEND  EQU   *                   END OF PARM PROCESSING
         EJECT
***********************************************************************
*        BUILD COST CENTRE / CHARGE CODE TABLE IN CORE                *
***********************************************************************
         SPACE 1
***********************************************************************
*    1.  SYSTABLE IS READ AND EVERY NON-BLANK TABLE ENTRY             *
*         FOUND BECOMES AN ELEMENT IN A CHAIN OF ENTRIES.             *
***********************************************************************
         SPACE 1
         USING PROJCARD,R3         ESTABLISH PROJECT LOG ADDRESSABILITY
         MVI   0(R8),SPCE2AFT       DOUBLE SPACE
         BAL   R4,PRINTOUT         PRINT THE LINE
         TM    TABLESW,DDSTAT      TEST FOR SYSTABLE STATEMENT
         BZ    GETTABLX            BYPASS PROCESSING IF NONE
         LA    R2,CHAIN            POINT R2 AT FIRST CHAIN FIELD
GETTABLE GET   SYSTABLE            GET TABLE RECORD
         AP    CNTTAB,ONE          INCREMENT RECORD COUNT
         LR    R3,R1               POINR R3 AT START OF RECORD
         CLC   PROJPERC,=C'000'    TEST IF OCCASIONAL USER
         BE    GETTABLE            IGNORE ENTRY ENTIRELY IF SO
         CLC   PROJPERC,=C'100'    VERIFY THAT ALL CHARGES TO 1 COST CN
         BE    TABBLD              BRANCH IF YES TO BUILD CHAIN
         CLC   PROJCHRG,CHNCHRG(R2) TST IF CHANGE OF CHARGE CODE
         BE    GETTABLE            GET NEXT IF NOT
         OI    SWITCH,NON100       INDICATE THAT NON-100 ENTRY BUILT
         B     TABBLD+L'TABBLD     BUILD CHAIN ELEMENT
TABBLD   NI    SWITCH,255-NON100   SET NON-100 SWITCH OFF
         AP    CNTNTRYS,ONE        INCREMENT ENTRY COUNT
       GETMAIN R,LV=17             GET CORE TO BUILD ELEMENT
         ST    R1,CHNNEXT(R2)      POINT PREVIOUS ELEMENT AT THIS ONE
         ST    R2,CHNLAST(R1)      POINT THIS ELEMENT AT LAST
         LR    R2,R1               POINT R2 AT THIS ELEMENT
         MVC   CHNCHRG(4,R2),PROJCHRG  CHARGE CODE TO ELEMENT
         MVI   CHNCOST(R2),C'P'    ASSUME PSEUDO CODE NEEDED ..
         MVC   CHNCOST+1(4,R2),PROJCHRG ... AND SET IT UP
         TM    SWITCH,NON100       TEST IF PSEUDO CODE NEEDED
         BO    *+10                BRANCH IF YES
         MVC   CHNCOST(5,R2),PROJCC SET UP TRUE ENTRY
         XC    CHNNEXT(4,R2),CHNNEXT(R2)  AND ZEROISE FORWARD POINTER
         XC    CHNFLAG(1,R2),CHNFLAG(R2) ZEROISE FLAGS
         CLC   PROJDATC,SPACES     TEST IF PROJECT CLOSED
         BE    *+8                 BRANCH IF NOT
         OI    CHNFLAG(R2),PROJCLOS INDICATE PROJECT CLOSED
         B     GETTABLE            GET NEXT RECORD
         EJECT
***********************************************************************
*        BUILD COST CENTRE / CHARGE CODE TABLE ( CONTINUED )          *
***********************************************************************
         SPACE 1
***********************************************************************
*    2.  AN AREA OF CORE LARGE ENOUGH TO CONTAIN ALL THE              *
*         COST CENTRE / CHARGE CODE ENTRIES CONTIGUOUSLY IS           *
*         ACQUIRED, THE CHAIN ELEMENTS ARE MOVED TO THIS AREA,        *
*         AND THE CHAIN ELEMENTS ARE RELEASED.                        *
***********************************************************************
         SPACE 1
ENDTABLE ZAP   DECIMAL,CNTNTRYS    MOVE ELEMENT COUNT TO WORK AREA
         CP    DECIMAL,ZERO        TEST FOR ANY ELEMENTS
         BE    GETTABLX            BRANCH IF NOT TO BYPASS PROCESSING
         AP    DECIMAL,ONE         ALLOW ROOM FOR DELIMITER
         MP    DECIMAL,TEN         MULTIPLY BY ELEMENT SIZE
         CVB   R0,DECIMAL          CONVEERT REQUIRED SIZE TO BINARY
       GETMAIN R,LV=(R0)           GET NECESSARY AREA OF CORE
         ST    R1,ADRTABLE         PRESERVE TABLE ADDRESS
         LR    R2,R1               INITIALISE TABLE POINTER
         L     R3,CHAIN            GET ADDRESS OF 1ST CHAIN ELEMENT
TABLOOP2 LTR   R1,R3               TEST FOR END OF CHAIN
         BZ    GETTABLX            BRANCH IF YES TO EXIT
         MVC   0(9,R2),CHNCHRG(R1) MOVE ELEMENT CONTENTS TO TABLE
         MVC   NTRYFLAG(1,R2),CHNFLAG(R3) MOVE FLAGS TO TABLE
         LA    R2,10(,R2)          ADJUST TABLE POINTER TO NEXT ENTRY
         L     R3,CHNNEXT(R1)      GET ADDRESS OF NEXT CHAIN ELEMENT
         LA    R0,17               INDICATE ELEMENT SIZE IN R0
      FREEMAIN R,LV=(R0),A=(R1)    FREE THE CHAIN ELEMENT
         NI    CCSW,X'0F'          ENABLE 'COST CENTRE' RTN
         B     TABLOOP2            PROCESS THE NEXT ELEMENT
GETTABLX EQU   *                   END OF COST/CHRG TABLE BUILD RTN
         LA    R2,TABLESW          POINT AT D/S CONTROL ELEMENT
         BAL   R4,CLOSE            CLOSE SYSTABLE D/S IF OPEN
         EJECT
***********************************************************************
*        INVOKE THE SORT AND PROCESS THE ACCOUNTIND CARDS             *
***********************************************************************
         SPACE 1
SORTSW   BC    0,PPROCESS          OPTIONALLY BYPASS THE SORT
         BAL   R4,HEADING          WRITE INITIAL REPORT HEADINGS
         STM   R5,R12,40(R13)      PRESERVE T580P130'S REGISTERS
         LA    R1,SORTPARM         ESTABLISH PARAMETER LINKAGE