         MACRO                                                            012710
&NAME    EQUATES &DUMMY                                                   012720
***********************************************************************   012730
*        REGISTER EQUATES AND USAGE                                   *   012740
***********************************************************************   012750
         SPACE 1                                                          012760
R0       EQU   0                                                          012770
R1       EQU   1                   GP WORK REGISTER                       012780
R2       EQU   2                   GP WORK REGISTER                       012790
R3       EQU   3                   GP WORK REGISTER                       012800
R4       EQU   4                   BAL/CBAL RETURN ADDRESS                012810
R5       EQU   5                   SYSPRINT / PRINT BUFFER ADDRESS        012820
R6       EQU   6                   SYSIN/SYSUT1 BUFFER POINTER            012830
R7       EQU   7                   GP BUFFER POINTER                      012840
R8       EQU   8                   GP FIELD POINTER                       012850
R9       EQU   9                   GENERAL PURPOSE WORK REGISTER          012860
R10      EQU   10                  GP C/B BASE REGISTER                   012870
R11      EQU   11                  SECOND BASE REGISTER FOR 'PARROT'      012880
R12      EQU   12                  SUB-CSECT BASE REGISTER                012890
R13      EQU   13                  CCB PTR / SAVE AREA PTR / BASE REGIS   012900
R14      EQU   14                  BALR RETURN ADDRESS                    012910
R15      EQU   15                  BALR ROUTINE ADDRSS / EXECUTE REG      012920
         SPACE 5                                                          012930
FPR0     EQU   0                   FLOATING POINT REGISTER 0              012940
FPR2     EQU   2                   FLOATING POINT REGISTER 2              012950
FPR4     EQU   4                   FLOATING POINT REGISTER 4              012960
FPR6     EQU   6                   FLOATING POINT REGISTER 6              012970
         EJECT                                                            012980
***********************************************************************   012990
*        DCBSW EQUATES ( FOR IOM MACRO )                              *   013000
***********************************************************************   013010
         SPACE 1                                                          013020
         IOM   EQUATES,10,AUTOPEN=NO EQUATES FOR IOM                      013030
         EJECT                                                            013040
***********************************************************************   013050
*        EQUATES FOR HALT INIDCATORS                                  *   013060
***********************************************************************   013070
         SPACE 1                                                          013080
$HINDH0  EQU   X'08'               HALT INDICATOR H0                      013090
$HINDH1  EQU   X'04'               HALT INDICATOR H1                      013100
$HINDH2  EQU   X'02'               HALT INDICATOR H2                      013110
$HINDH3  EQU   X'01'               HALT INDICATOR H3                      013120
         EJECT                                                            013130
***********************************************************************   013140
*        MISCELLANEOUS EQUATES                                        *   013150
***********************************************************************   013160
         SPACE 1                                                          013170
KEY      EQU   X'01'               INTERNAL REPRESENTATION OF 'KEY'       013180
NAME     EQU   X'02'               INTERNAL REPRESENTATION OF 'NAME'      013190
CNT      EQU   X'03'               INTERNAL REPRESENTATION OF 'CNT'       013200
FF       EQU   255                 ALL-1 MASK                             013210
OO       EQU   0                   ALL-0 MASK                             013220
F0       EQU   X'F0'               MASK WITH ALL-1 IN HIGH ORDER 4 BITS   013230
OF       EQU   X'0F'               MASK WITH ALL-1 IN LOW ORDER 4 BITS    013240
CSIGN    EQU   X'03'               DETECT SIGN X'C' & CONVERT TO X'F'     013250
SPCE0AFT EQU   X'01'               WRITE WITHOUT SACING                   013260
SPCE1AFT EQU   X'09'               SPACE 1 AFTER PRINTING                 013270
SPCE2AFT EQU   X'11'               SPACE 2 AFTER PRINTING                 013280
SPCE3AFT EQU   X'19'               SPACE 3 AFTER PRINTING                 013290
PAGESKIP EQU   X'8B'               SKIP TO NEW PAGE                       013300
SPCE1NPR EQU   X'0B'               SPACE 1: NO PRINT                      013310
SPCE2NPR EQU   X'13'               SPACE 2: NO PRINT                      013320
SPCE3NPR EQU   X'1B'               SPACE 3: NO PRINT                      013330
NULLPL   EQU   128                 PL IS NULLIFIED ( EMPTY )              013340
NULLCB   EQU   X'7F'               C/B IS NULLIFIED ( DUE TO ERRORS )     013350
REFCB    EQU   X'5C'               LIB HAS BEEN REFERENCED                013360
W        EQU   X'96'               EQUATE USED TO SET COND CODE LOW       013370
X        EQU   X'95'               EQUATE USED TO SET COND CODE EQUAL     013380
Y        EQU   X'94'               EQUATE USED TO SET COND CODE HIGH      013390
*                                   E.G.     CLI   FLD,Y                  013400
*                                            CLI   *,Y                    013410
         EJECT                                                            013420
***********************************************************************   013430
*        EQUATES USED TO ESTABLISH INDEXED BRANCHES AFTER A TEST      *   013440
***********************************************************************   013450
         SPACE 1                                                          013460
EQ       EQU   1                   INTERNAL REPRESENTATION OF 'EQ'        013470
NE       EQU   2                   INTERNAL REPRESENTATION OF 'NE'        013480
GT       EQU   3                   INTERNAL REPRESENTATION OF 'GT'        013490
GE       EQU   4                   INTERNAL REPRESENTATION OF 'GE'        013500
LT       EQU   5                   INTERNAL REPRESENTATION OF 'LT'        013510
LE       EQU   6                   INTERNAL REPRESENTATION OF 'LE'        013520
ON       EQU   7                   INTERNAL REPRESENTATION OF 'ON'        013530
OFF      EQU   8                   INTERNAL REPRESENTATION OF OFF         013540
         SPACE 5                                                          013550
***********************************************************************   013560
*        INTERNAL REPRESENTATION OF ARITHMETIC OPERATIONS             *   013570
***********************************************************************   013580
         SPACE 1                                                          013590
ADD      EQU   1                   INTERNAL REPRESENTATION OF ADD         013600
SUBTRACT EQU   2                   INTERNAL REPRESENTATION OF SUBTRACT    013610
MULTIPLY EQU   3                   INTERNAL REPRESENTATION OF MULTIPLY    013620
DIVIDE   EQU   4                   INTERNAL REPRESENTATION OF DIVIDE      013630
EXPONENT EQU   5                   INTERNAL REPRESENTATION OF EXPONENTI   013640
         EJECT                                                            013650
***********************************************************************   013660
*        EQUATES FOR FIELD TYPES ( USED FOR INDEXED BRANCHES )        *   013670
***********************************************************************   013680
         SPACE 1                                                          013690
CHAR     EQU   1                   CHARACTER                              013700
NUM      EQU   2                   DISPLAY NUMERIC                        013710
PD       EQU   3                   PACKED DECIMAL                         013720
HEX      EQU   4                   HEXADECIMAL STRING                     013730
BIT      EQU   5                   BIT STRING                             013740
MASK     EQU   6                   PARTIAL MASK                           013750
BIN      EQU   7                   BINARY VALUE                           013760
FLOAT    EQU   8                   FLOATING POINT NUMBER                  013770
STRING   EQU   9                   CHAR STRING TO OCCUR WITHIN FIELD      013780
IND      EQU   10                  INDICATOR                              013790
FREEFORM EQU   11                  FREE FORMAT DISPLAY NUMERIC            013800
*        EQU   12                  RESERVED FOR FUTURE USE                013810
         SPACE 5                                                          013820
***********************************************************************   013830
*        EQUATES FOR INTERNAL SORT PROCESSING                         *   013840
***********************************************************************   013850
         SPACE 1                                                          013860
DELETE   EQU   4                   DELETE CURRENT RECORD                  013870
NORETURN EQU   8                   DO NOT RETURN TO THIS EXIT             013880
INSERT   EQU   12                  INSERT CURRENT RECORD                  013890
         EJECT                                                            013900
***********************************************************************   013910
*        CONTROL BLOCK IDENTIFIERS                                    *   013920
***********************************************************************   013930
         SPACE 1                                                          013940
FLAGACE  EQU   1                   ARITHMETIC CALCULATION ELEMENT         013950
FLAGCCE  EQU   20                  CURRENCY CONVERSION ELEMENT            013960
FLAGDCE  EQU   19                  DATE CONVERSION ELEMENT                013970
FLAGFDB  EQU   2                   FIELD DEFINITION BLOCK                 013980
FLAGHDG  EQU   14                  HEADING LINE STORAGE AREA              013990
FLAGISD  EQU   3                   IS DATA FIELF DEFINITION               014000
FLAGISR  EQU   4                   IS FILE KEY DEFINITION                 014010
FLAGJCL  EQU   16                  JCL STATEMENT                          014020
FLAGKBD  EQU   5                   KET BREAK DEFINITION                   014030
FLAGLCD  EQU   6                   LINE COMPONENT DESCRIPTION             014040
FLAGLIB  EQU   12                  LABEL IDENTIFICATION BLOCK             014050
FLAGMFD  EQU   18                  MOVE FIELD DEFINITION                  014060
FLAGOCB  EQU   13                  INPUT/OUTPUT CONTROL BLOCK             014070
FLAGPCB  EQU   7                   PROCESSING CONTROL BLOCK               014080
FLAGPTE  EQU   8                   PROCESSING TEST ELEMENT                014090
FLAGRAE  EQU   9                   RANGE ANALYSIS ELEMENT                 014100
FLAGRST  EQU   11                  RECORD SELCTION TEST                   014110
FLAGSAB  EQU   17                  SUB-ROUTINE ANCHOR BLOCK               014120
FLAGSCE  EQU   10                  SELECTION CRITERION ELEMENT            014130
FLAGTRD  EQU   15                  TWENTY80 REPORT DEFINITION             014140
FLAGUEB  EQU   21                  USER EXIT BLOCK                        014150
         SPACE 5                                                          014160
***********************************************************************   014170
*        PARROT COMPLETION CODES                                      *   014180
***********************************************************************   014190
         SPACE 1                                                          014200
COND4    EQU   4                   CONDITION CODE OF 4                    014210
COND8    EQU   8                   CONDITION CODE OF 8                    014220
COND12   EQU   12                  CONDITION CODE OF 12                   014230
COND16   EQU   16                  CONDITION CODE OF 16                   014240
         MEND                                                             014250
