         MACRO                                                            019580
&NAME    GR02  &DUMMY                                                     019590
***********************************************************************   019600
*        FORMAT OF GR02 CONTROL CARD                                  *   019610
***********************************************************************   019620
         SPACE 1                                                          019630
*        SPECIFY CRITERIA FOR SELECTING RECORDS                           019640
         SPACE 1                                                          019650
GR02CARD DSECT                                                            019660
GR02ID   DS    CL4                 CARD ID ('GR02')                       019670
GR02TST1 DS    0CL19               1ST TEST DEFINITIOON                   019680
GR02POS  DS    CL3                 POSN OF FIELD TO BE TESTED             019690
*                                  1ST TEST OF CONTINUATION CARDS WILL    019700
*                                   CONTAIN AN 'AND' IN THIS FILED        019710
GR02LEN  DS    CL2                 LGTH OF FIELD TO BE TESTED             019720
GR02TYP  DS    CL1                 TYPE OF FIELD                          019730
*                                   ' ' - UNPACKED NUMERIC                019740
*                                   'N' - UNPACKED NUMERIC                019750
*                                   'C' - CHARACTER                       019760
*                                   'P' - PACKED DECIMAL                  019770
*                                   'X' - HEXADECIMAL                     019780
*                                   'B' - BIT STRING                      019790
*                                   'M' - PARTIAL (CHARACTER) MASK        019800
*                                   'S' - CHARACTER STRING                019810
*                                   '1' - BINARY                          019820
*                                   'F' - FLOATING POINT                  019830
*                                   'G' - FREE FORMAT DISPLAY NUMERIC     019840
GR02TEST DS    CL2                 TEST TYPE                              019850
*                                   EQ/NE/GT/GE/LT/LE/ON/OF               019860
GR02VALU DS    CL11                COMPARAND VALUE                        019870
*                                   NUMERIC: RIGHT-ADJUSTED               019880
*                                   OTHER: ANY ALIGNMENT IN QUOTES        019890
GR02TST2 DS    CL19                AS GR02POS - GR02VALU                  019900
GR02TST3 DS    CL19                AS GR02POS - GR02VALU                  019910
GR02TST4 DS    CL19                AS GR02POS - GR02VALU                  019920
GR02LGTH EQU   *-GR02CARD          LENGTH OF DSECT                        019930
         SPACE 5                                                          019940
*        IF PPPLL CONTAINS 'DELETE', THEN THE RECORD WILL BE DELETED      019950
*         IF ALL THE SPECIFIED TESTS ARE SATISFIED.                       019960
         MEND                                                             019970
