         MACRO                                                            022740
&NAME    GR13  &DUMMY                                                     022750
***********************************************************************   022760
*        FORMAT OF GR13 CONTROL CARD                                  *   022770
***********************************************************************   022780
         SPACE 1                                                          022790
*        DEFINE AN OPERATION / FUNCTION                                   022800
         SPACE 1                                                          022810
GR13CARD DSECT                                                            022820
GR13ID   DS    CL4                 CARD ID ( 'GR13' )                     022830
GR13OPCD DS    CL2                 OPERATION/FUNCTION CODE                022840
GR13OPCM DS    CL1                 OPERATION CODE MODIFIER                022850
*                                  (E.G. LANGUAGE FOR DATE CONVERSION)    022860
GR13LABL DS    CL2                 LABEL OF PRIMARY DESTINATION FIELD     022870
GR13PTYP DS    CL1                 PROCESSING TYPE INDICATOR (A,B, ETC)   022880
GR13IND  DS    CL2                 INDICATOR NUMBER                       022890
GR13LIT  DS    CL11                LITERAL VALUE                          022900
GR13TST1 DS    CL19                SELECTION CRITERION BUCKET             022910
GR13TST2 DS    CL19                SELECTION CRITERION BUCKET             022920
GR13TST3 DS    CL19                SELECTION CRITERION BUCKET             022930
GR13LGTH EQU   *-GR13CARD          LENGTH OF DSECT                        022940
         MEND                                                             022950
