         MACRO                                                            023270
&NAME    GR90  &DUMMY                                                     023280
***********************************************************************   023290
*        FORMAT OF GR90 CONTROL CARD                                  *   023300
***********************************************************************   023310
         SPACE 1                                                          023320
*        DEFINE THE REQUIRED STATE OF UP TO 40 INDICATORS ( SET BY THE    023330
*         PARM OF BY SYSINB INPUT ) TO MAKE THE INCLUSION OF THE FILLOW   023340
*         CONTROL CARDS CONDITIONAL AT EXECUTION TIME                     023350
         SPACE 1                                                          023360
GR90CARD DSECT                                                            023370
GR90ID   DS    CL4                 CARD ID ('GR90')                       023380
GR90UNU1 DS    CL6                 UNUSED                                 023390
GR90INDS DS    CL40                INDICATOR STATUS                       023400
*                                   'Y' - MUST BE ON ('Y')                023410
*                                   'N' - MUST BE OFF ('N')               023420
*                                   ' ' - MAY BE EITHER ON OR OFF         023430
GR90UNU2 DS    CL30                UNUSED                                 023440
GR90LGTH EQU   *-GR90CARD          LENGTH OF DSECT                        023450
         MEND                                                             023460
