         MACRO                                                            023770
&NAME    GR93  &DUMMY                                                     023780
***********************************************************************   023790
*        FORMAT OF GR93 CONTROL CARD                                  *   023800
***********************************************************************   023810
         SPACE 1                                                          023820
*        SPECIFY STRING OF PARAMETER VALUES                               023830
         SPACE 1                                                          023840
*        ANY NUMBER OF GR93 CARDS MAY BE SUPPLIED, AND EACH MAY           023850
*         CONTAIN ONE OR MORE PARM VALUES SEPARATED BY COMMAS.  SINCE     023860
*         CONTROL CARDS ARE PROCESSED AFTER THE PARM STRING SUPPLIED      023870
*         IN THE EXEC STATEMENT, THESE VALUES OVERRIDE THE EXEC PARM.     023880
         SPACE 1                                                          023890
GR93CARD DSECT                                                            023900
GR93ID   DS    CL4                 CARD ID ( 'GR93' )                     023910
         DS    CL1                 UNUSED                                 023920
GR93PARM DS    CL74                PARM STRING                            023930
GR93DELM DS    CL1                 DELIMITER ( ' ' )                      023940
GR93LGTH EQU   *-GR93CARD          LENGTH OF DSECT                        023950
         MEND                                                             023960
