         MACRO                                                            037780
&NAME    LTRR  &R1,&R2                                                    037790
         AIF   ('&R2' NE '').A01                                          037800
&NAME    LA    &R1,0(,&R1)         PURIFY HIGH-ORDER BYTE                 037810
         AGO   .A02                                                       037820
.A01     ANOP                                                             037830
&NAME    LA    &R1,0(,&R2)         PURIFY HIGH-ORDER BYTE                 037840
.A02     LTR   &R1,&R1             TEST REGISTER VALUE                    037850
         MEND                                                             037860
