         MACRO                                                            010700
&NAME    PCB   &DUMMY                                                     010710
***********************************************************************   010720
*        PCB - PROCESSING CONTROL BLOCK                               *   010730
***********************************************************************   010740
         SPACE 1                                                          010750
*        DEFINE A GR07 / GR13 STATEMENT                                   010760
         SPACE 1                                                          010770
PCBNTRY  DSECT                                                            010780
PCBID    DS    0CL1                CONTROL BLOCK IDENTIFIER               010790
PCBPCB   DS    F                   ADDRESS OF NEXT PDB                    010800
PCBNPCB  DS    F                   ADDRESS OF PCB TO WHICH TO GO NEXT     010810
*                                  (NORMALLY THE SAME AS 'PCBPCB', BUT    010820
*                                  BRANCHES & SUB-ROUTINES MAY ALTER)     010830
PCBLIB   DS    F                   ADDRESS OF LIB OF RESULT FIELD         010840
PCBSCE   DS    F                   ADDRESS OF 1ST SCE IN CHAIN            010850
PCBPTE   DS    0F                  ADDRESS OF 1ST ASSOCIATED PTE          010860
PCBACE   DS    0F                  ADDRESS OF 1ST ASSOCIATED ACE          010870
PCBCB    DS    F                   ADDRESS OF 1ST ASSOCIATED CONTROL BL   010880
PCBIND   DS    0CL3                INDICATOR SPECIFICATION                010890
PCBINDD  DS    H                   DISPLACEMENT OF INDICATOR BYTE         010900
PCBINDM  DS    CL1                 BIT MASK FOR APPROPRIATE INDICATOR     010910
PCBOPCD  DS    CL2                 OPERATION CODE ( FROM GR13 )           010920
PCBOPCM  DS    CL1                 OPERATION CODE MODIFIER (FROM GR13)    010930
PCBFUNC  DS    CL1                 INTERNAL REPRESENTATION OF OP-CODE     010940
PCBLABL  DS    CL2                 LABEL OF GR07 STATEMENT (RESULT FLD)   010950
*                                  OR LABEL OF ASSOCIATED CBXX C/B        010960
PCBTYPE  DS    CL1                 PROCESSING TYPE                        010970
*                                  ( A,B,C,D,E,T,Z,0-8 )                  010980
PCBCBID  DS    CL1                 C/B IDENTIFIER OF ASSOCIATED C/B       010990
PCBSW    DS    CL1                 SWITCH BYTE                            011000
PCBLGTH  EQU   *-PCBNTRY           LENGTH OF BASIC DSECT                  011010
PCBLIT   DS    CL11                LITERAL VALUE ( FROM GR13 CARD )       011020
         SPACE 5                                                          011030
MPCBTEST EQU   1                   PCB DEFINES A TEST                     011040
MPCBCALC EQU   2                   PCB DEFINES AN ARITHMETIC CALCULATIO   011050
MPCBFUNC EQU   4                   PCB DEFINES A SPECIAL FUCTION          011060
MPCBLIT  EQU   8                   PCB CONTAINS LITERAL VALUE             011070
MPCBCBXX EQU   16                  PCB HAS ASSOCIATED CBXX C/B            011080
MPCBIND  EQU   32                  INDICATOR SPECIFICATION EXISTS         011090
         MEND                                                             011100
