         MACRO                                                            011840
&NAME  RTNDES  &DUMMY                                                     011850
***********************************************************************   011860
*        RTNDES - CBAL ROUTINE DESCRIPTOR                             *   011870
***********************************************************************   011880
         SPACE 1                                                          011890
*        DEFINES A ROUTINE THAT IS INVOKED BY CBAL.                       011900
         SPACE 1                                                          011910
RTNDNTRY DSECT                                                            011920
RTNDFLAG DS    0CL1                FLAG BYTE                              011930
RTNDADDR DS    F                   ADDRESS OF ROUTINE                     011940
RTNDINDX DS    CL1                 INDEX OF ASSOCIATED CSECT DESCRIPTOR   011950
RTNDSR12 DS    CL3                 SAVE AREA FOR CURRENT SUBCSECT BASE    011960
RTNDLGTH EQU   *-RTNDNTRY          LENGTH OF ROUTINE DESCRIPTOR           011970
         SPACE 5                                                          011980
*        EQUATES FOR RTNDFLAG - FLAG BYTE                                 011990
         SPACE 1                                                          012000
RTNFBRTN EQU   1                   RTN ADDRESS HAS NO KNOWN CSECT         012010
RTNFCBAL EQU   2                   RTN NULLIFIED BUT INVOKED BY CBAL      012020
         MEND                                                             012030
