         MACRO                                                            035130
&NAME    SUBLR &REG,&REG2                                                 035140
.*                                                                        035150
.*       REFRESH REGISTER FROM SUBIN SAVE AREA                            035160
.*                                                                        035170
.* OR    LOAD &REG WITH CONTENTS OF SUBIN SAVE AREA FOR &REG2             035180
.*                                                                        035190
         GBLA  &SUBINC                                                    035200
         GBLC  &SUBALL                                                    035210
         LCLC  &R                                                         035220
&R       SETC  '&REG'                                                     035230
         AIF   ('&REG2' EQ '').A01                                        035240
&R       SETC  '&REG2'                                                    035250
.A01     ANOP                                                             035260
         AIF   ('&SUBALL' EQ ' ').A02                                     035270
&NAME    L     &REG,&SUBALL.+(4*&R) REFRESH REGISTER FROM SUBIN SAVAREA   035280
         MEXIT                                                            035290
.A02     ANOP                                                             035300
&NAME    L     &REG,$&SUBINC.&R    REFRESH REGISTER FROM SUBIN SAVEAREA   035310
         MEND                                                             035320
