         MACRO                                                            036350
&NAME    TBLANK &FLD                                                      036360
.*                                                                        036370
.*       TEST IF A FIELD CONTAINS SPACES                                  036380
.*                                                                        036390
         LCLC  &L                                                         036400
&L       SETC  'L'''                                                      036410
&NAME    CLI   &FLD,C' '           TEST IF THE FIRST POSITION IS BLANK    036420
         BNE   *+10                BR IF NOT BLANK                        036430
         CLC   &FLD.+1(&L&FLD.-1),&FLD TEST IF REMAINDER IS BLANK         036440
         MEND                                                             036450
