         MACRO                                                            034140
&NAME    VERSID &A                                                        034150
         CSECTID DSECT=NO,ID=&A    GENERATE IDENTIFYING FIELDS            034160
         MEND                                                             034170
